65
Coordinates from ORCA-job P3HT-r2SCAN-3c-DEF2-TZVPD-9UN E -4967.274502884913
  C          -2.54905952874992     -1.01129560869231     -0.05564676860171
  C          -1.16905262868480     -0.96309578722298     -0.07698918145684
  C          -0.65161643384270      0.34219902429680     -0.05516712280463
  C          -1.62606206419293      1.32196801792021     -0.01701951191505
  S          -3.20395838028086      0.59524593169988     -0.00935245404694
  H          -0.55143617931673     -1.85375949945560     -0.10597894973175
  H           0.40856092694306      0.56890132104001     -0.06620734336937
  C          -1.47202417105080      2.74518036000897      0.01236115918711
  C          -2.44803221340551      3.72443747813730      0.05092349333878
  S           0.10549616759027      3.47244993619450      0.00042275038738
  C          -1.93385661081878      5.02940739885346      0.06972427785996
  H          -3.50765939379325      3.49540362543023      0.06511412057207
  C          -0.55171192079453      5.08036518971718      0.04626054737402
  H          -2.55260833635607      5.91919398181780      0.10054346730494
  C           0.30585336677068      6.22560831490520      0.05355632311958
  C           1.68840090698830      6.27678260357411      0.04382028144585
  S          -0.35231328930402      7.83354706432204      0.07504312053467
  C           2.20220795093614      7.58154774267735      0.05287842223988
  H           2.30747067840652      5.38677912883940      0.03103779013758
  C           1.22555693437762      8.56145301291563      0.07022008793962
  H           3.26194119113434      7.81051783016369      0.04735968766753
  C          -3.41445833950664     -2.15877633710270     -0.06730016908435
  C          -4.79396831511952     -2.20352356430889     -0.02456460390688
  S          -2.76783990362112     -3.76691928249438     -0.14372446569483
  C          -5.31126734151491     -3.51734652818847     -0.05302900336174
  H          -5.40984261350990     -1.31272554251860      0.02716769495526
  C          -4.33183014142846     -4.47112794161343     -0.11732351647732
  H          -6.36838397567664     -3.75291869622955     -0.02673569378608
  H          -4.44474487002301     -5.54572056963923     -0.15015098761623
  C           1.37872004359470      9.98365668511891      0.08053312115559
  C           0.40156099747086     10.96312018746522      0.09965854906798
  S           2.95616406470035     10.71228156536877      0.06488985016753
  C           0.91464527997745     12.26816127527458      0.10159726653004
  H          -0.65796607886192     10.73348867024257      0.11187093153897
  C           2.29718467914984     12.32006012259076      0.08423792536865
  H           0.29520390501409     13.15788385255857      0.11564602900603
  C           3.15339909625566     13.46602425713957      0.07840626186367
  C           4.53593644578746     13.51831922802757      0.06997654669085
  S           2.49387483828176     15.07373588856982      0.07702077688765
  C           5.04858399085334     14.82356513492477      0.06357456286897
  H           5.15584595610217     12.62880507005718      0.06919851074084
  C           4.07108366126413     15.80275213536516      0.06651322452637
  H           6.10810900031840     15.05343239020642      0.05694514438980
  C           5.99962112678486     20.70795994815157      0.02581839815223
  C           7.38098979738256     20.76002355289095      0.01692667431134
  C           7.89313006632221     22.06745417953442      0.00433777223299
  C           6.91639566123424     23.04389739642906      0.00345273857805
  S           5.34116702568870     22.31555104931546      0.01746749839145
  H           8.00151465114927     19.87094808476880      0.01993734871515
  H           8.95254061352439     22.29791681027946     -0.00362959300780
  C           7.06660436442854     24.47320568437679     -0.00742747947000
  C           6.08775722022253     25.44730942859455     -0.01056497195316
  S           8.63849562498057     25.20745236871591     -0.01948499055601
  C           6.60702000882214     26.76064501409680     -0.02216296864058
  H           5.02841223967567     25.21658722755101     -0.00459550933897
  C           7.97533516975852     26.78947043035803     -0.02791642915057
  H           5.99448339428104     27.65423744266911     -0.02607617822420
  C           5.14189174912823     19.56150025160346      0.03966046646641
  C           3.75980934601332     19.51002524305762      0.05153356522392
  S           5.80073432157701     17.95414461135611      0.04266818494231
  C           3.24634384586672     18.20465135084133      0.06269406757145
  H           3.14027833561491     20.39979237019740      0.05190394258275
  C           4.22337467702761     17.22536072551449      0.05971393816666
  H           2.18670826773609     17.97536040756347      0.07251087169193
  H           8.62698514071660     27.65194135417615     -0.03687949969882
