142
Coordinates from ORCA-job PTQ11-GFN2-xTB-PENTAMERO E -284.619152161390
  C          -9.69128639532866     -1.66687847866302      2.45064174083202
  C          -8.61949452464532     -2.55905870632303      2.38655495857362
  C          -7.53860438229354     -2.38480144958645      1.53229580805032
  C          -7.60074397147905     -1.23697554239896      0.69346973450812
  C          -8.67466642916674     -0.31986272500795      0.77595280601452
  C          -9.76469327683044     -0.51777049600562      1.67223011240458
  N          -8.66135251863018      0.79167907411664      0.01411208719051
  N          -6.62806887054165     -1.04773362159887     -0.22025282198625
  C          -7.69130532737471      1.00532616006445     -0.82503255318298
  C          -6.66447378461936      0.01624096333982     -0.97688333543513
  O          -5.75234434916867      0.20660818245199     -1.93003025867262
  C          -4.82456947705968     -0.84775832376228     -2.13656643253728
  H          -5.34949969868804     -1.76483904826502     -2.41156437418298
  H          -4.18113383932221     -0.52056679346554     -2.95020786053711
  H          -4.24466986349307     -1.03945581792065     -1.23415284796048
  F         -10.66962354255403     -1.97491316676340      3.32186039727279
  F          -8.66440988128073     -3.61124080297503      3.22300931251605
  C          -6.40663580934068     -3.26938758264003      1.48632601806945
  C          -6.30440728966430     -4.56771586317503      1.94114794566156
  S          -4.89106627256457     -2.70945397647013      0.85531690128309
  C          -5.03543172177507     -5.11350811226779      1.76208380857309
  H          -7.11913265280736     -5.11824771411202      2.37336911997095
  C          -4.13300146172678     -4.23245522332062      1.19791240283347
  H          -4.79184430032787     -6.11712008764536      2.05560606448565
  C         -14.49792191285916      5.43232792625024      0.96445722987055
  C         -13.89801997114121      4.28770426017279      1.50986463761918
  C         -13.08708608977517      3.45326543572066      0.75505189885967
  C         -12.90801053569167      3.80771034008067     -0.61280015656382
  C         -13.49781670307707      4.97898031888879     -1.14783068420551
  C         -14.30561728561159      5.79533463565067     -0.34082847002836
  H         -14.75348792518765      6.68560934072315     -0.74819825903776
  N         -13.27936004731572      5.32948092428323     -2.43850909426451
  N         -12.18982141455825      2.99172532582452     -1.41160777628024
  C         -12.55489907202776      4.55685364375178     -3.19062852277862
  C         -12.02503780182009      3.32908244701665     -2.66258079843254
  O         -11.37098609164299      2.52532576874075     -3.50121307373050
  C         -10.97063134014232      1.26535515019908     -2.98536210872290
  H         -11.84328682538490      0.69569404815472     -2.65926274947336
  H         -10.46960509110676      0.75521556687126     -3.80506247986306
  H         -10.30068148550442      1.38741069492570     -2.13447910677444
  F         -15.26558896227864      6.19237737651406      1.76391082150174
  F         -14.11480267277563      4.03907537358913      2.81367508002703
  C         -12.42623172005329      2.29241618540533      1.29688256740897
  C         -12.73781667926186      1.57265393579115      2.42998435969796
  S         -11.00168890651647      1.66773763160749      0.53205502650687
  C         -11.85825236977889      0.51805273921259      2.66878446501171
  H         -13.58155033682649      1.78135207865884      3.06123688885896
  C         -10.83885427512708      0.43310624656995      1.74076384979431
  H         -11.96600928493056     -0.14459519165311      3.50658907819006
  C          -2.13605304283088     -5.69478824708679      0.88034371431382
  C          -0.78201506701324     -5.87341893962422      0.59262217725706
  C           0.06688643006034     -4.82494727869075      0.26238907931234
  C          -0.54107573869343     -3.53949307779709      0.20710664065634
  C          -1.90764320339668     -3.35477438691681      0.52253917976703
  C          -2.75165228736638     -4.44841792867312      0.87265157527088
  N          -2.42777494391315     -2.11161189446132      0.52880516938024
  N           0.20156410702537     -2.48736260848827     -0.19031564567485
  C          -1.69382469000464     -1.08747246134746      0.20641978236419
  C          -0.34108044173073     -1.29968684950622     -0.21795526147917
  O           0.34595401049528     -0.24686461599195     -0.66139150229006
  C           1.63647161211323     -0.51186681803669     -1.19063333574915
  H           2.02675993034238      0.45058343275897     -1.51380016086382
  H           2.28316561445601     -0.96148871725483     -0.43753725960976
  H           1.56415938608551     -1.19722804772540     -2.03752317299539
  F          -2.83410525856655     -6.80716788330811      1.17444081356217
  F          -0.31257520416803     -7.13126175777931      0.67116884883324
  C           1.47268936819740     -4.98451679522154      0.01009752047191
  C           2.16909321706101     -6.12973368012355     -0.31601297767820
  S           2.54400788339734     -3.63023681665157      0.17710544708233
  C           3.53869927086614     -5.91759645843805     -0.45604724685382
  H           1.71003359315160     -7.08882302482248     -0.46811998109461
  C           3.92114703865264     -4.61370245214862     -0.20595139761118
  H           4.22150230215069     -6.70472071187438     -0.71480986551383
  C           6.34649854570458     -4.68068817610438     -0.78904444998056
  C           7.61217073950850     -4.09391788404681     -0.83404010053107
  C           7.87862264513648     -2.82813141995394     -0.32847683571719
  C           6.77145735372895     -2.16154127011606      0.26786072114746
  C           5.48101027224271     -2.74045384098850      0.27999082398695
  C           5.23649361881004     -4.04046888726336     -0.25032759762953
  N           4.44984546715316     -2.06097694048096      0.81978874181915
  N           6.97619895815849     -0.96882238575723      0.86078816413288
  C           4.64289631544367     -0.90104218078552      1.37558444479669
  C           5.96753615848972     -0.35458073198027      1.41921863456383
  O           6.14645449552705      0.79388568295130      2.07131814427241
  C           7.48808964818031      1.23293395461801      2.22207154092932
  H           7.95857828501922      1.39120855132141      1.25197875619875
  H           7.43373835983623      2.16224798670984      2.78460807711452
  H           8.06949539915879      0.48944213818095      2.77099564909379
  F           6.23863743038726     -5.90614972223343     -1.33470328670702
  F           8.58404612619787     -4.80863548326889     -1.42851119779740
  C           9.16511902039682     -2.19237165669296     -0.40537082342583
  C          10.40118045026020     -2.76535543301967     -0.62055450776661
  S           9.29072441100406     -0.46577807294065     -0.28971266032745
  C          11.43679219503109     -1.83473171676647     -0.66603401584383
  H          10.56345515765834     -3.82210292034208     -0.72374593272834
  C          11.00924373678496     -0.52912859815269     -0.52041140865572
  H          12.46110009155442     -2.11828861020459     -0.81792440544048
  C          13.17932369008899      0.69991498933483     -0.44585274898724
  C          13.91713003227265      1.88406260218685     -0.44989802082627
  C          13.33880885248494      3.14609045400739     -0.52726068797344
  C          11.91618094836245      3.15480732101824     -0.60132974230885
  C          11.16876295997766      1.95217250014286     -0.59306443170740
  C          11.79263667707899      0.67407648772852     -0.51629624066711
  N           9.82543273287348      1.99683007565860     -0.68507975958001
  N          11.27351257731205      4.33887105594882     -0.68068486948097
  C           9.20912117334275      3.13629334971501     -0.78428397648827
  C           9.96939319057602      4.35228966451096     -0.76876161566057
  O           9.28929390999943      5.49309332790156     -0.85236804769210
  C          10.03690712007598      6.69642310501690     -0.84622595256014
  H          10.72944446796889      6.72328965063830     -1.68909248750619
  H           9.30742480115397      7.49930887826416     -0.92440366729212
  H          10.61134756996189      6.78778086403251      0.07707285431444
  F          13.88922838637614     -0.43925772384552     -0.35182004870914
  F          15.25234427294634      1.73997898352715     -0.36724334501854
  C          14.09723210331559      4.36819972508036     -0.53197272498734
  C          15.46153870893141      4.54458249263084     -0.48856502729495
  S          13.28964678303293      5.90837884626743     -0.59966526860980
  C          15.85112663632485      5.89348196759712     -0.50830753640035
  H          16.17166921653203      3.74150702545798     -0.44519039613514
  C          14.78961159056090      6.74119770595757     -0.56539040607994
  H          16.87738054307948      6.21334482859082     -0.48074379243182
  H          14.80027734846087      7.81290711047322     -0.59146179286670
  C         -12.29871557405104      4.93877276930430     -4.60617334134198
  H         -12.66721463454636      4.15970367357421     -5.27115528005953
  H         -12.79456873342078      5.87923347978223     -4.82505306999025
  H         -11.22772927117428      5.03544907684033     -4.77540999800804
  C          -7.66396007073679      2.26480543709061     -1.61801803346921
  H          -7.70673275822162      2.03790964286448     -2.68200290821538
  H          -8.50294515959873      2.89369188212311     -1.33535993057984
  H          -6.72969784293825      2.79251969772323     -1.43404355932834
  C          -2.26788814353515      0.28435419882323      0.27584290183907
  H          -3.28531386283076      0.23703297318586      0.65248259930561
  H          -1.65980836243519      0.90179879793581      0.93475218145798
  H          -2.25368279778901      0.74647226109041     -0.70987012357429
  C           3.49785959874150     -0.17731888068027      1.99303079278377
  H           3.30274135190134      0.74691596605969      1.45122699633959
  H           2.61428733650299     -0.80844056574089      1.97836240635501
  H           3.74615562322040      0.09090637386975      3.01823812866177
  C           7.72797102980294      3.16641601073312     -0.92980225504994
  H           7.34742756361546      2.15188076682662     -1.00221691823427
  H           7.27844786088773      3.67451356288812     -0.07817553405189
  H           7.46029622684917      3.72744017383395     -1.82339529518870
