254
Coordinates from ORCA-job PTQ11-GFN2-xTB-9UN E -511.526040676790
  C           7.57720410126458     -4.81455081624227      3.17152625168407
  C           8.73112696619035     -4.64649665960413      2.40405652089390
  C           9.25243082961381     -3.40019176818569      2.08269212438790
  C           8.51457590737371     -2.28464194076228      2.56847626168271
  C           7.35929803367640     -2.45508043379008      3.36684629398253
  C           6.85461566312777     -3.74745673293413      3.69211537264001
  N           6.72920794463977     -1.37348666739476      3.86611884706806
  N           8.91372701078688     -1.04375171938505      2.22534211112802
  C           7.15017262599052     -0.17580384202337      3.58482699470200
  C           8.25677173148816     -0.01385970805032      2.68752614393961
  O           8.58677053149094      1.22493591608335      2.32288740398781
  C           9.60373011732530      1.34475930256071      1.33975269792091
  H           9.72167236648690      2.41175081370017      1.16458839067047
  H          10.53650981629123      0.90146696109626      1.68732538600385
  H           9.30206482850144      0.83911148645025      0.42021840466369
  F           7.19020981942076     -6.08444053365956      3.39232328944497
  F           9.34846992025395     -5.76938679306608      1.99554115554656
  C          10.46388567222739     -3.21083001379246      1.33264321474895
  C          11.11836620646755     -4.10158665719602      0.50736096226462
  S          11.34222450936804     -1.72080451944753      1.46215318296799
  C          12.29408893739788     -3.58631034550200     -0.03338020374612
  H          10.75722695461363     -5.08773445325065      0.28201762459410
  C          12.57965588980627     -2.30385425826071      0.39414942962509
  H          12.91729072529521     -4.14945283244101     -0.70211283993146
  C           0.76566597663106     -2.82372091645244      8.20615683116573
  C           1.84117029604241     -3.45340319592852      7.56246744595757
  C           2.46318596491712     -2.89509198795629      6.45568896545199
  C           1.94113157590196     -1.65389094307682      5.99146203714520
  C           0.87102369566745     -1.01384002328639      6.66314501014681
  C           0.27877136516653     -1.61658096376692      7.78394076892570
  H          -0.53449131646626     -1.12929891602401      8.29412646289093
  N           0.41646035862065      0.19025670058722      6.23895892930426
  N           2.45958607540162     -1.10258739363654      4.87475121392740
  C           0.94743733615968      0.73197142879228      5.18441864281623
  C           1.97922380835867      0.03942616658614      4.46127289760924
  O           2.42208588203904      0.59240390959759      3.33206471141202
  C           3.34632613630841     -0.17269747329595      2.57423682015498
  H           3.58103793483176      0.42851041779244      1.69865890693992
  H           4.24460476357809     -0.38483250908450      3.15374181174562
  H           2.89603337907877     -1.12137618501109      2.27483820797836
  F           0.22103253426349     -3.42738862335318      9.27621455173844
  F           2.27354878820504     -4.61757943314008      8.07869185850533
  C           3.59443837963143     -3.49882450331744      5.79708900753095
  C           4.00919180682362     -4.81266781421777      5.82569394331337
  S           4.68020224089888     -2.52102469396284      4.86469220610313
  C           5.17101528191833     -5.03698345860680      5.08904140214475
  H           3.48729560238145     -5.59631819736785      6.34283929802450
  C           5.68389226291996     -3.89205070706669      4.51131252577723
  H           5.62086137226630     -6.00797204365648      5.00275938054167
  C          14.59188383454556     -1.75541107742501     -0.97596262350786
  C          15.68928157029584     -0.94489298242172     -1.27042363733390
  C          15.97710828206937      0.22256011656862     -0.57524819872384
  C          15.05713429192433      0.56375953015063      0.45539908367700
  C          13.95812894849882     -0.26972403917278      0.76949885504774
  C          13.69578239573980     -1.47033639348937      0.04784837892963
  N          13.15042229579555      0.05228756273606      1.79903522450905
  N          15.22572164331847      1.72605265983220      1.11677891898511
  C          13.34977448781685      1.14352821337102      2.47785621813285
  C          14.40083780224622      2.03426285356208      2.08143035849487
  O          14.50185251266877      3.20083204570162      2.71828509558799
  C          15.47267169480655      4.10989712068426      2.22202972423788
  H          16.47238392511955      3.67940995068700      2.27321389539836
  H          15.25760791280518      4.36200716410133      1.18163609289222
  H          15.39765943497948      4.99483120249442      2.84998645613840
  F          14.43808898544350     -2.85078587325723     -1.74262578420601
  F          16.49240783905041     -1.36084846573294     -2.26582102043037
  C          17.12803473373017      1.04309446458373     -0.83531893943824
  C          17.92295677172849      1.08610155879476     -1.96196910569938
  S          17.72827878944724      2.11243982482438      0.39154051137011
  C          18.98285429066939      1.98307089458430     -1.85167607082781
  H          17.74117829717009      0.50586539690696     -2.84739027856066
  C          19.03948003241386      2.61876819914711     -0.62622001501436
  H          19.69011844990771      2.14131615623842     -2.64379314683746
  C           0.46403724926731      2.05988360169657      4.71737055721155
  H          -0.32599697911896      2.41123830175206      5.37359891087344
  H           1.28693997332585      2.77248808265720      4.71233068647763
  H           0.09289675914244      1.97969932703259      3.69719062785277
  C           6.47627340151226      1.00565168729489      4.18959999973641
  H           7.20463870423310      1.60193047472321      4.73649036836294
  H           6.05741011464121      1.63785204138023      3.40840187148189
  H           5.69189404195434      0.67453284701875      4.86368859243022
  C          12.48403990885556      1.45470061331151      3.64822718394591
  H          11.77932244074477      0.64416787890544      3.80844855313939
  H          13.10184230863070      1.58625519970826      4.53487904122545
  H          11.95000018047344      2.38863276791813      3.48100979603791
  C          26.05743430748264      9.27265842813710      3.89819444664343
  C          26.81664891825298      9.70351822726787      4.98718070060974
  C          26.84797716307741      9.03137939157298      6.20225793664844
  C          26.02585767889484      7.87251744142708      6.28202474154210
  C          25.27428667886247      7.42279815058401      5.17114700262661
  C          25.27341067683744      8.12525008561171      3.93121510546450
  N          24.56310275187297      6.28195871683804      5.26534734885596
  N          25.94099671270520      7.21692099624722      7.45660957198624
  C          24.53058706685840      5.61508446309081      6.38142634622470
  C          25.20882070012218      6.13786975176432      7.53120958408120
  O          25.05554802674117      5.49660216930237      8.68957982776302
  C          25.63898067789292      6.10580596654666      9.83138909896786
  H          25.40031050122980      5.45413033646744     10.66888903777498
  H          26.71727353011199      6.20702534034242      9.71141120720324
  H          25.21383089254694      7.09914709307210      9.98868923804737
  F          26.12136864538373     10.03298275312163      2.78957753483743
  F          27.55476877954593     10.81251262741077      4.80258841927440
  C          27.65973227065230      9.43574511544834      7.31710218716219
  C          28.23706082701260     10.66363991541585      7.56630071772609
  S          28.09191845189729      8.28459349022131      8.54082512599757
  C          28.99343934927175     10.68706944702871      8.73567791925097
  H          28.10730964400503     11.52629960678948      6.93966353273846
  C          29.03755158456872      9.46882483377946      9.38602526752436
  H          29.50227753799320     11.56886010778829      9.07661708099622
  C          20.90806030718571      4.23326417706961     -0.98503157570718
  C          21.84090529278298      5.15337313863616     -0.50429538641272
  C          21.92388634471835      5.51983569474599      0.83285357110218
  C          20.96851714400030      4.91165430412933      1.69453832867644
  C          20.03818133729832      3.96170309854146      1.21160592753574
  C          19.98607963662824      3.59396344391111     -0.16426804633500
  N          19.19631320777962      3.35618552312760      2.07224443227065
  N          20.93477076747136      5.28220346262698      2.99001627311574
  C          19.20566239306256      3.66896213139516      3.33457428017981
  C          20.07808337626314      4.71011729430436      3.79300878834190
  O          19.97697557273368      5.09170559736202      5.06610118740032
  C          20.76664430293686      6.20472212239491      5.45701955079476
  H          20.54225765310242      6.37213569318714      6.50805768727237
  H          21.82722513523991      6.00047625541799      5.31276140160749
  H          20.50026307417727      7.08345181071455      4.86617104680111
  F          20.94337456544559      3.98513571566727     -2.30731735846190
  F          22.69472518721494      5.66902453265262     -1.40646547064521
  C          22.90784103348945      6.43007073564163      1.35122747495026
  C          23.67056880031973      7.35777142650454      0.67244504400617
  S          23.32139908347168      6.39647814675938      3.03559381183826
  C          24.55510310757151      8.04942906443460      1.49664360629123
  H          23.58563308949441      7.54952841526709     -0.38097947604094
  C          24.51063683464082      7.64089048071848      2.81578754861007
  H          25.21455687131371      8.81107592547755      1.12553355433612
  C          30.28122036508366     10.05689041138626     11.46795375556028
  C          30.96407125180511      9.69509614431817     12.63019059755486
  C          31.12851315519641      8.37596747401360     13.03275531545329
  C          30.52656646598222      7.39948356073594     12.19048901648426
  C          29.85445188757362      7.76452221218689     11.00046215335093
  C          29.71447501197751      9.12635518347736     10.60471030858943
  N          29.35871318328654      6.80542945375001     10.19387812136409
  N          30.57288866572110      6.10477935658861     12.56225622694460
  C          29.45804896456934      5.55095930787347     10.52227875682191
  C          30.04529947066935      5.19980197587284     11.78209402506234
  O          30.02153499570298      3.91729431333299     12.14422889232094
  C          30.49999301351073      3.61934289726186     13.44714426899912
  H          31.54157361065063      3.91950592338776     13.55832677263288
  H          29.90647720062222      4.14573380401399     14.19739265570837
  H          30.39072757909018      2.54344374059640     13.56360025826146
  F          30.19600720787439     11.37563062775724     11.21336672047947
  F          31.49071284575650     10.69911621446633     13.35357823402478
  C          31.86829874295923      7.98453423946485     14.20098249824866
  C          32.22144622572713      8.74532058653065     15.29627086172147
  S          32.51196473197882      6.37831791000132     14.32486314916472
  C          32.97500285579058      8.04184857701411     16.23294637090720
  H          31.93354805074367      9.77107308557881     15.43278376162799
  C          33.24198467563080      6.73938099836039     15.85703758399625
  H          33.32321369314126      8.48701792806325     17.14578450518448
  C          18.31014412485086      2.94924266187727      4.28122961081040
  H          17.76186011819208      2.17620863530634      3.75106910084102
  H          18.90368441089309      2.50055913901065      5.07591905587452
  H          17.61745032985437      3.64865883447405      4.74640192946782
  C          23.78790724877546      4.32681882408644      6.45156961088886
  H          24.46045420311212      3.53470900795952      6.77619101921665
  H          22.98686465142500      4.39601987465329      7.18569776674615
  H          23.38028640954463      4.08514996108098      5.47447392289588
  C          28.95747143742296      4.50146340399500      9.59270826153032
  H          28.58807521593235      4.96415182327828      8.68235548053499
  H          29.76411410371292      3.81062909384313      9.35351424411942
  H          28.16555604715160      3.92602862929288     10.06929943010215
  C          39.23655711354547     -1.04698453077581     20.03243601108109
  C          40.15333236240471     -2.09229641340595     19.91001793829514
  C          40.74905180614643     -2.44010962391199     18.70454057630986
  C          40.34272519526925     -1.67262307813715     17.57715036505761
  C          39.43212767411991     -0.59767950618615     17.70531528968059
  C          38.84785096965296     -0.25420363969182     18.95885949452462
  N          39.12781399580053      0.15033407733548     16.62637797655621
  N          40.81406939390868     -2.00827462019098     16.35984780970319
  C          39.63254620353844     -0.13496509206408     15.46222916039924
  C          40.46703319965727     -1.29254044152237     15.32389249111464
  O          40.86627545504625     -1.62949023908373     14.09769630292141
  C          41.58689228287088     -2.84692556588742     13.97952799801246
  H          41.80975140371717     -2.95712337543832     12.92064996182637
  H          42.50265010284505     -2.81739104052896     14.56938524042284
  H          40.97726884333844     -3.68253334007577     14.32931980037654
  F          38.73636003909446     -0.83466999695803     21.26363230393732
  F          40.46300543054920     -2.75384146672853     21.03924392950513
  C          41.72978706972804     -3.48205260552534     18.57026949732698
  C          42.00102292573848     -4.53017087315121     19.42487978058174
  S          42.82200966889230     -3.47913007265440     17.22216806432907
  C          43.05256402412675     -5.33413026090724     18.99045572756793
  H          41.45150946142989     -4.72775220998158     20.32637797893739
  C          43.62816490874013     -4.89692652829710     17.81323435962289
  H          43.38466727560444     -6.19602054752657     19.53780270930037
  C          34.38504872220592      5.85494900407875     17.89130696723571
  C          35.13414549929765      4.87715561395904     18.54764234102344
  C          35.53423570236752      3.69410069230259     17.93972387255488
  C          35.10553766662220      3.52239412874640     16.59359224067627
  C          34.36633352824516      4.52352187502253     15.92092090797119
  C          33.98266256665541      5.73478071785853     16.56620744459555
  N          34.03973662053608      4.35325611411454     14.62456672558815
  N          35.38448837322330      2.36223978223731     15.96683783475120
  C          34.36349417917320      3.25886835010777     14.00095382258601
  C          35.01715937066925      2.20693279254921     14.72307737803867
  O          35.22465070358133      1.05262619326304     14.08980088163867
  C          35.76238497250948     -0.00686812970500     14.86669211772715
  H          35.84609600551128     -0.85570235204671     14.19176547443310
  H          36.73575312293591      0.26381059096425     15.27488823247971
  H          35.09350604025178     -0.24458680781352     15.69634096394025
  F          34.06446265423502      6.94424775108631     18.61362641726070
  F          35.48236202592809      5.14166473710376     19.81941942975691
  C          36.34440464275990      2.69886009852861     18.58651786494377
  C          36.57042139899306      2.50982020099557     19.93426111401574
  S          37.26213151110179      1.57337334078490     17.63747015273147
  C          37.44646733518604      1.46051791104403     20.20179815433415
  H          36.10813872050187      3.09368416476806     20.70825941366396
  C          37.93423751080829      0.84818139766020     19.06334370924217
  H          37.72116582428102      1.17799914712999     21.20051119070051
  C          45.25409334813150     -6.72969020582108     17.34177292337612
  C          46.32538739716877     -7.26193495372339     16.62367605153334
  C          46.96385253855287     -6.58719078889537     15.58915936867370
  C          46.44247958820928     -5.29343977192187     15.29933765417837
  C          45.35153773476338     -4.75735630885857     16.02525646895768
  C          44.72320477197002     -5.47268971654124     17.08437517194550
  N          44.89511504477395     -3.52296786429261     15.73641595507260
  N          47.00554663718187     -4.56885926578161     14.30970530514160
  C          45.45232816743504     -2.81701589764339     14.79881045066514
  C          46.54378095584473     -3.37332297701801     14.05237178405922
  O          47.06682426990680     -2.61759404399546     13.09040868261384
  C          48.15228597782072     -3.15785340793809     12.35773828053616
  H          48.98793350224317     -3.38695819294033     13.02102446183457
  H          47.85344137753604     -4.07500745525913     11.84745724428288
  H          48.43382552777351     -2.39316187272034     11.63743383467561
  F          44.73729019782537     -7.51545848200172     18.30419098881872
  F          46.71651681859455     -8.49672002933831     16.98823369382789
  C          48.06954404686019     -7.13270257938191     14.84850707533273
  C          48.71124150148334     -8.33987109975183     15.00786047818845
  S          48.78535047768329     -6.23457079892455     13.54088663847551
  C          49.75875120682078     -8.54020871606667     14.09452752624971
  H          48.45073901835428     -9.06681525121015     15.75271130773763
  C          49.91411496835597     -7.49205983969895     13.24244077766852
  H          50.36649694100545     -9.42710760232270     14.07649490365578
  H          50.63154572685763     -7.38255525184383     12.45335399379323
  C          34.04713845359647      3.11125325966886     12.55380437440815
  H          33.59126642335280      4.02459371488152     12.18330854848177
  H          34.96107266176727      2.90483803305622     11.99949130377241
  H          33.37556284642430      2.26794037882642     12.40149659834641
  C          39.33362096846479      0.73654650314800     14.29297879103305
  H          40.26441026417179      1.10261769346410     13.86310223867237
  H          38.82040260219193      0.16498778104685     13.52141955176128
  H          38.72008661622164      1.57523822649946     14.60834613794608
  C          44.96618006953639     -1.43779907715260     14.52200808904432
  H          44.19608528622513     -1.17036465405755     15.23944941807040
  H          45.79638958077771     -0.73725708831634     14.59202670208077
  H          44.57155940020092     -1.37575851439174     13.50911734112347
