338
Coordinates from ORCA-job PTQ11-GFN2-xTB-12UN E -681.705722602790
  C           4.42045583990056      1.35030712310884      1.87726995447228
  C           5.24382404193845      0.86318298261174      2.89409218660600
  C           6.56904334407987      1.24903847029136      3.04588784946022
  C           7.04016148046506      2.20391078099964      2.10149863726601
  C           6.21722922082338      2.66929318983309      1.04945826624804
  C           4.86134413645643      2.25151134888772      0.91533195091774
  N           6.71364688881625      3.54295076048234      0.15141898007339
  N           8.28742276738744      2.69402604728101      2.24322038527686
  C           7.92476439617704      4.00029998605422      0.27470762728493
  C           8.72561936307397      3.57657208199880      1.38570652716469
  O           9.92888567801139      4.13058406191690      1.53488196323532
  C          10.63368000694856      3.79979056283266      2.72213412996516
  H          10.81634339244745      2.72717301310745      2.78264715132842
  H          11.56960716797294      4.35186358517430      2.67381324559524
  H          10.05841822118027      4.10227319099302      3.59946749863149
  F           3.16340219161569      0.87088410119560      1.84993986530508
  F           4.69800620294733     -0.04114397802737      3.72645035605140
  C           7.44306035496963      0.72444594325997      4.05897954071707
  C           7.11649475860113      0.08077116136768      5.23447493017557
  S           9.16315521206822      0.80038404879006      3.84725809462141
  C           8.23070549483736     -0.32222626314460      5.96688871394993
  H           6.10926464485388     -0.08104580307776      5.57063284397781
  C           9.43093773639754     -0.02515416813360      5.35008764055860
  H           8.14887703029442     -0.82988793228128      6.90936585179455
  C           1.86229270160746      5.92757186827348     -5.06705169064334
  C           1.92649542424215      5.17927612747193     -3.88226558823926
  C           3.09832947659397      4.56710961038997     -3.46341519566843
  C           4.23342324498023      4.71993015967156     -4.31007432768008
  C           4.16544464765323      5.49890360688706     -5.49097156620934
  C           2.95703170372743      6.10500577112268     -5.86873104314001
  H           2.90576802900449      6.69717220004140     -6.76641760598893
  N           5.26697177951073      5.67665797403584     -6.25997141151401
  N           5.37829986702985      4.08223245267026     -3.99072679781872
  C           6.37621805699975      5.09041973121606     -5.92303612909872
  C           6.41651197033771      4.23533543360426     -4.76812769907022
  O           7.55010204828619      3.57802709157164     -4.52173839685916
  C           7.51801022943142      2.64258432797627     -3.45471655954991
  H           6.76870116749212      1.87262296067443     -3.64966703546843
  H           8.51219421375449      2.20289635424499     -3.41650089829376
  H           7.27187432129632      3.13245773297985     -2.51273315024739
  F           0.69033004157457      6.49422711250958     -5.40057229265311
  F           0.80708018652106      5.09835603256547     -3.14142703659113
  C           3.20673133345698      3.82653284099802     -2.23148915237732
  C           2.20637951706055      3.24784023345493     -1.48108765630390
  S           4.75258162995962      3.62604615034448     -1.47316754806629
  C           2.67724745658062      2.62974479313287     -0.32376054872595
  H           1.16891966040796      3.24906667912239     -1.75972754676219
  C           4.04200278263723      2.75424983962062     -0.15168195257212
  H           2.02732431909392      2.12544269226911      0.36610978852328
  C          11.07514968523691     -0.71801237048215      7.09461226458731
  C          12.38335030264093     -0.95395023522986      7.52002343613979
  C          13.48846904541561     -0.79980949546810      6.69308129304255
  C          13.20245859768957     -0.40099872789102      5.35714204265955
  C          11.87974938020473     -0.13024473401793      4.93515037637668
  C          10.76481855041206     -0.29152588001293      5.80835041250870
  N          11.65288418435786      0.27566527954701      3.67031707529501
  N          14.21796852113205     -0.31586546351554      4.47528012466448
  C          12.63457647582232      0.37355223739015      2.82276874133714
  C          13.96273233899070      0.03684681149434      3.24361798242813
  O          14.93280294242228      0.07050137576160      2.33010832933506
  C          16.20621360664002     -0.40204632810924      2.74285007960796
  H          16.13819728603121     -1.44497382035114      3.05873804706341
  H          16.85200173652389     -0.31100783990705      1.87237418074496
  H          16.58954389795617      0.18641991892202      3.57602909590054
  F          10.10972867207035     -0.89240044974752      8.01571381736002
  F          12.53985204494622     -1.31711818076760      8.80540447113216
  C          14.84378068841417     -0.99894352657202      7.12743242054323
  C          15.30560059448044     -1.69272541384734      8.22677589373398
  S          16.15307902618752     -0.25993708481036      6.26227611766390
  C          16.69166331423953     -1.65336866813318      8.35783423332339
  H          14.67152134326358     -2.22948174745256      8.90758746642139
  C          17.31499433348876     -0.90081881634699      7.38092628626116
  H          17.21026475676652     -2.15021114836050      9.15587404543374
  C          19.72224993126800     -1.30981748346483      7.89486300707651
  C          21.07706004897123     -1.01984910910573      7.72658616875623
  C          21.54074228496608     -0.04952649306692      6.84764185051560
  C          20.53796267596040      0.62636416796404      6.09762577152537
  C          19.16337069473620      0.34885619213222      6.28479604874712
  C          18.71609173992660     -0.64412474429114      7.20410886300782
  N          18.24161762889729      1.05969596064646      5.60588294511508
  N          20.91863528302417      1.52332792288565      5.16640584804724
  C          18.60806133573287      1.96841128744164      4.75067427304100
  C          20.00382267686260      2.16610849060140      4.49120507057099
  O          20.34307309445751      3.01801249655772      3.52357476537567
  C          21.72518274659679      3.09986481933915      3.20985829836910
  H          22.09795531306159      2.12573487894820      2.88693121245587
  H          21.80268297249999      3.82279930857286      2.40089199243011
  H          22.30344745268443      3.42074966520142      4.07590163352957
  F          19.42695715106416     -2.28235162064354      8.77684480931430
  F          21.93911012052613     -1.71950361073936      8.48548126293733
  C          22.92867810819043      0.29103366068241      6.69537166412966
  C          24.04260655309725     -0.44315750035171      7.04630098023903
  S          23.37930859831964      1.83954096097799      6.05654591972432
  C          25.24034134168141      0.21691756052679      6.78199472759486
  H          24.00273648871388     -1.43222980599937      7.46323370276566
  C          25.06579906744115      1.48232849787209      6.25543108666581
  H          26.19863018922280     -0.22051996677332      6.98943378669412
  C          27.41911070537029      2.14735314571854      5.75927189524832
  C          28.37434055102147      3.10421433894526      5.41297264290082
  C          28.05550330886133      4.42750526981688      5.13670063804724
  C          26.67109048481091      4.75022144417632      5.20247506524036
  C          25.70526624782011      3.78583597970284      5.57452025665916
  C          26.06410537815423      2.43818411080807      5.86777928864743
  N          24.41241215713347      4.14780219179206      5.69108748486336
  N          26.27857126550143      5.99520557361723      4.86689183238027
  C          24.04188503765442      5.36582306506979      5.42545001862475
  C          25.01266778775988      6.30641235696764      4.94809292747604
  O          24.58094012712851      7.50985435171906      4.57095769961455
  C          25.54640857174352      8.37465735133453      3.99193209451913
  H          25.97017598997705      7.92091341979302      3.09375149931006
  H          25.01217428674062      9.28790154694052      3.73966609737563
  H          26.35712350735676      8.57801501923403      4.69105835116104
  F          27.87858602350429      0.90383368300020      5.99074460165101
  F          29.65338708066879      2.69011347563871      5.37852875914239
  C          29.03183275797467      5.43474311004147      4.82410483369905
  C          30.32876072097710      5.27444238210462      4.38220856307027
  S          28.65824001996749      7.11177500641855      5.06348686800235
  C          31.00379863851351      6.48107024845307      4.21316470333022
  H          30.77655858427971      4.32190625296654      4.16806509046789
  C          30.24804119571916      7.58604163916666      4.55495456179613
  H          32.01900529597016      6.53127163209435      3.86741740336376
  C          31.76218581035084      9.45443066188929      3.88912077728679
  C          32.11415535794499     10.80504186129252      3.88948709297414
  C          31.34616440885267     11.78789589005470      4.50052145626281
  C          30.14490680192479     11.33330256034961      5.11334347604633
  C          29.79891899948374      9.96173984131361      5.13172686377156
  C          30.61537390866546      8.97304327073009      4.50989853972271
  N          28.68706463060195      9.56333850109743      5.78071593888923
  N          29.30854637810700     12.24144253381766      5.65407695036594
  C          27.91066919669520     10.43438764919858      6.35509808998848
  C          28.21595014889892     11.83029192076263      6.23986499806887
  O          27.33854052772126     12.70270241657607      6.73575069907978
  C          27.61080664269372     14.07590505314822      6.50021459309788
  H          27.64797779405954     14.27544026153288      5.42737448497280
  H          26.79078413983586     14.62318957598267      6.95967246965038
  H          28.56583864219053     14.36492079479187      6.93812663775659
  F          32.60195219895448      8.62023582193124      3.24887741231879
  F          33.26886365386353     11.12424242112557      3.27850427756897
  C          31.71812773876374     13.17516327482740      4.55006216462502
  C          32.61853044111981     13.85801314556240      3.75881997797439
  S          31.05727831304876     14.20933185995115      5.77615827128062
  C          32.75592732817785     15.19764354655847      4.11477934128248
  H          33.15048996314788     13.41668233258823      2.93666146270550
  C          31.98933739581744     15.55746059883518      5.20646657512595
  H          33.41168808094753     15.86930384289456      3.59366729142980
  C          26.71735238657892      9.97256413766218      7.11602517585743
  H          25.80969258120210     10.37442998360281      6.66873164727301
  H          26.68337772762816      8.88715870365375      7.12074821266398
  H          26.76964998570307     10.34390642885970      8.13802435603119
  C          22.61972282466505      5.76352164461223      5.61418655748258
  H          22.19089576658595      6.08125795278717      4.66521047658333
  H          22.05623072458036      4.92783268574898      6.01838855333305
  H          22.56458875165054      6.60964100787350      6.29694920431163
  C          17.57684661117750      2.78344775014245      4.05136784091515
  H          17.64075648065193      2.62483968295645      2.97612993754728
  H          16.58925060529557      2.51144180784396      4.41190933438066
  H          17.75903731442355      3.84054584765564      4.23709859946848
  C          12.36131268030473      0.79359966926968      1.42080812279738
  H          11.28958930906077      0.87255371714980      1.26451902740072
  H          12.83765138434071      1.75143056188658      1.21725191271503
  H          12.78509412500215      0.06456934027045      0.73263413678475
  C           8.44722441603163      4.98407404425061     -0.71284679274840
  H           9.27217643903957      4.54842445369510     -1.27455556561022
  H           7.65263238672027      5.27868057515520     -1.39185591094870
  H           8.83252788067141      5.85728559954065     -0.18971778680332
  C           7.59497870508066      5.29008926992463     -6.75384353170469
  H           8.38770413442540      5.72682611230783     -6.14897786343751
  H           7.95290053209737      4.32983370069717     -7.12091686498279
  H           7.36335519877567      5.94407873747241     -7.58863240611661
  C          31.21595750889972     24.45983595848201     11.04699566026945
  C          31.07758653623445     25.11429650338383     12.27211572390125
  C          31.12181888043342     24.45368067141355     13.49302079797956
  C          31.34175361862352     23.04918101729324     13.42127418001040
  C          31.44248313659839     22.38050644342002     12.17899100658984
  C          31.39050718693438     23.08484624689957     10.94121532715656
  N          31.60851754027352     21.04330729462140     12.15266191994790
  N          31.49042369174648     22.35743176505203     14.56794710678773
  C          31.73084844052567     20.37166742424081     13.25979498021374
  C          31.70050704194593     21.06937183868543     14.51160942401978
  O          31.91882646574846     20.36667572217040     15.62306194398060
  C          32.03057932667951     21.10930734357348     16.82812113150256
  H          31.11624082698208     21.66659551421565     17.03042842934989
  H          32.22138501982842     20.37737787695178     17.60972864550172
  H          32.85884568630456     21.81739201480528     16.75974614428992
  F          31.13505415372259     25.23124764662964      9.94736410542101
  F          30.86485854665738     26.44122549393735     12.22284151299127
  C          30.93863860973858     25.10490785311227     14.76062175799875
  C          31.05216302429083     26.44467835465100     15.06899379790677
  S          30.44544105562437     24.18618295407606     16.14751210321849
  C          30.77314918095819     26.72562366051215     16.40441042038964
  H          31.34507269730400     27.20041318783942     14.36416964133493
  C          30.40781272696590     25.61179067865142     17.13598970018836
  H          30.82399663884824     27.71929680384498     16.80771920536675
  C          32.39071282743695     18.01808907095228      5.31214783024056
  C          32.30415625388593     19.24610251275751      5.96995454880098
  C          31.69409681475671     19.40062066616515      7.20807171555126
  C          31.12775343158572     18.21897257215287      7.76320137799104
  C          31.23540875443640     16.97013203569757      7.10753547723066
  C          31.88228786636837     16.83895393912416      5.84457037747279
  N          30.74684294413503     15.86240029361737      7.69948334002292
  N          30.44510019191066     18.30936355783675      8.92167162651464
  C          30.14222298965109     15.94030933327095      8.84837229128669
  C          29.94434824618826     17.22565041137761      9.45138551386825
  O          29.21497184200826     17.28645126746082     10.56559262021888
  C          28.93448850729154     18.58495949968436     11.06682655984575
  H          28.38768738967842     19.16731566312448     10.32252018712096
  H          28.32346520611156     18.43378564497035     11.95386937404676
  H          29.85368537493440     19.11611929750110     11.31279678291510
  F          33.00377587334777     18.02586878036329      4.11421982707628
  F          32.86954887904759     20.29881416250416      5.35303024429486
  C          31.63915877998321     20.64705994188546      7.92118441598416
  C          31.80365440460037     21.92859885979266      7.43814578189736
  S          31.40671290727228     20.65430428715851      9.64053397169381
  C          31.71731474878827     22.90348250398823      8.42943120066530
  H          31.96286007856760     22.16403830477184      6.40230120164677
  C          31.51987886289301     22.38467735560396      9.69466498043191
  H          31.81571764908995     23.95162908082068      8.21866802751009
  C          30.23191757527261     26.56071483747298     19.43728292365166
  C          29.89524017270260     26.44634433717509     20.78699436098951
  C          29.33817539873681     25.29783409711800     21.33438731122763
  C          29.10627753291006     24.23356472793911     20.41815276201320
  C          29.47778984218677     24.33751223183772     19.05717317966253
  C          30.05396290396455     25.52732986311072     18.52460169104344
  N          29.27075969722886     23.29586092582734     18.22756285877490
  N          28.48768266410458     23.12122631132203     20.86076109640470
  C          28.68840446034160     22.21544429310410     18.65808146222062
  C          28.25930993037109     22.14463060754850     20.02374222405980
  O          27.59431500457488     21.05659459394403     20.41206603249667
  C          27.06319537402328     21.07709593642917     21.72849718429379
  H          26.35906464621222     21.90416378776039     21.83915334842165
  H          26.55294142205242     20.12510567761328     21.85657297108531
  H          27.85534604879615     21.19738178990217     22.46701920902404
  F          30.78015150074620     27.72957790633950     19.05815548917071
  F          30.16596744473091     27.50946769004749     21.56464033529339
  C          29.02459108996419     25.15005888383156     22.72886837414574
  C          28.84996183785997     26.13044420602166     23.68363081652299
  S          28.88536117135390     23.56833919328025     23.42792939265200
  C          28.58235159066933     25.61999136312349     24.95159004798279
  H          28.89328318132620     27.18367352410240     23.47746890290781
  C          28.58040566597543     24.23909679055730     24.99903421863754
  H          28.41323432661119     26.25068033044594     25.80380668181380
  C          27.85301726203204     23.82079820593078     27.34902312000107
  C          27.65968136906833     22.96990383693590     28.43835770199960
  C          27.92841717125997     21.60791748448273     28.39311303075483
  C          28.39670009158455     21.11789750122637     27.14176438869527
  C          28.61518029311527     21.98413954062207     26.04471431514590
  C          28.34281060523092     23.38065919532056     26.12477431003546
  N          29.12589750647309     21.49247244946930     24.89868161829351
  N          28.59941495124245     19.79319997274340     26.99861033401691
  C          29.37947801565058     20.22229002294313     24.78121771927556
  C          29.05323876871174     19.33845465651122     25.86143477331885
  O          29.21130494027846     18.02944296131321     25.66471775461720
  C          28.76620103248230     17.17561045779332     26.70793944577021
  H          27.69795765295562     17.31804630383217     26.88328443496640
  H          28.96249779956981     16.16224548203422     26.36497640997938
  H          29.29873090733867     17.38296525658669     27.63570282257279
  F          27.53926660030054     25.11503287641394     27.54176356210146
  F          27.21172098292276     23.53886861144026     29.57143783823599
  C          27.77652417525586     20.72716150113478     29.51844960631746
  C          27.04077165382343     20.91508596520879     30.67020664916030
  S          28.64463236030598     19.22605955561128     29.57226728436417
  C          27.15135350697757     19.85807357870300     31.57051920026578
  H          26.42584751023712     21.77588643123548     30.85609963044122
  C          28.00032934653410     18.85651042983924     31.14039132412238
  H          26.63525539152187     19.84502221587031     32.51187867829934
  C          27.69899052533651     17.14240645726704     32.92852411825943
  C          28.08087150929348     15.96489700547390     33.57336632778125
  C          29.13649521299286     15.17257109727177     33.14102045881932
  C          29.80015763559729     15.62490320254484     31.96623893014975
  C          29.42853863620438     16.83056683443158     31.32628338089753
  C          28.35009376913892     17.63140715549171     31.80198221712533
  N          30.12758769426562     17.26086000066768     30.25745953741289
  N          30.77889862106394     14.86241409627402     31.43967612598807
  C          31.11352809203213     16.55539102158476     29.78664389156433
  C          31.41060513867536     15.28309503769299     30.37673663660248
  O          32.34354980250583     14.52932569404235     29.79512923055487
  C          32.52793295967174     13.22717332642476     30.32981321121019
  H          31.60133238077887     12.65410682501261     30.25750787329278
  H          33.30671430870736     12.76697030483291     29.72586711975663
  H          32.82380969274750     13.27363338352421     31.37752785664892
  F          26.65070657073641     17.79874352427187     33.45880388966341
  F          27.38244986585895     15.62934043762899     34.67249197281341
  C          29.57208160739796     13.98345078885997     33.82053438272433
  C          28.88747762170187     13.20924369745672     34.73397550626524
  S          31.18599098421526     13.39063505148073     33.58737545290710
  C          29.63823250008933     12.14077212875958     35.21931497560851
  H          27.87205630743992     13.39051856127108     35.03357648714418
  C          30.92263503925382     12.09696616309739     34.71268457726771
  H          29.24924259825473     11.43840705789513     35.93212293320373
  C          31.76381721603712      9.95198339203337     35.66989467148503
  C          32.79467526532867      9.05000656608738     35.93529283202255
  C          34.11409828824102      9.26107646920177     35.55091235393024
  C          34.35190431402219     10.47883367646190     34.85077559833247
  C          33.30344266103455     11.39006527953356     34.57704488439783
  C          31.96261765436814     11.14667964681568     34.99070987668001
  N          33.56701478945994     12.54086519637920     33.92769312005888
  N          35.60633867437591     10.76334107414649     34.44233182749561
  C          34.77883969474610     12.82442359661717     33.55480362538242
  C          35.83376985498968     11.88824120609094     33.81654688762562
  O          37.05303277280641     12.21730454874343     33.39786338404003
  C          38.10048054390963     11.30146164428267     33.66443329184896
  H          37.90236768767849     10.34068066946317     33.18640117881831
  H          39.00122536332380     11.75392220822942     33.25603187165788
  H          38.20530666705285     11.13899058393929     34.73837079907132
  F          30.53889296116106      9.59398376740410     36.09651247077008
  F          32.43737920897469      7.93265725714553     36.59428939222465
  C          35.17896673730596      8.33394638038960     35.82501736397312
  C          35.13645733296978      7.13787674131062     36.50479111175279
  S          36.79655745666717      8.65798279259488     35.27061808278422
  C          36.38136925952502      6.49256833826451     36.57771901796310
  H          34.24843248072100      6.72567613235043     36.94366679611363
  C          37.36759712432347      7.19205944959548     35.95570383955410
  H          36.53086632068774      5.54945743711463     37.07213022683366
  H          38.40341398994367      6.93225169054559     35.86117497648344
  C          35.06173588787462     14.11987812165857     32.87875713897601
  H          35.43092824660345     13.94329354256229     31.86977707330242
  H          34.15752194617290     14.72036143868718     32.84544900313038
  H          35.83991687196327     14.65281314539027     33.42219006496349
  C          31.91298954139716     17.07334942968748     28.64259981158195
  H          31.83585174175589     16.39509799833371     27.79442180645529
  H          31.55832870340539     18.06162455521502     28.36543620126802
  H          32.96314440239496     17.12496464423911     28.92486346216896
  C          29.99717009546899     19.70490644328726     23.52918668770867
  H          29.33210121931566     18.98615747951900     23.05331202585946
  H          30.20151806869898     20.53042902272141     22.85384051566846
  H          30.92368637758314     19.18512563714459     23.76698494505674
  C          28.43972197367100     21.08616500528086     17.72013364426399
  H          28.71175134595635     21.38154276564695     16.71116255658472
  H          29.01970233070147     20.21502069830888     18.02096937964208
  H          27.38816284877123     20.80757795028098     17.75584992775169
  C          31.94118569497812     18.89863505068808     13.21131989106633
  H          31.08824084027604     18.38382811247720     13.65101756058735
  H          32.07408629418697     18.58095490299640     12.18144861631761
  H          32.81966533104365     18.63620496600233     13.79783607027566
  C          29.66015910326854     14.69971040817785      9.51540902981387
  H          30.10074969838382     14.62398630044326     10.50802091658440
  H          28.57919846845114     14.73750798719330      9.63994743276504
  H          29.93864744772620     13.83330713822962      8.92290843147233
