86
Coordinates from ORCA-job PTQ11-GFN2-xTB-TRIMERO E -171.165819315120
  C           3.24486380763290     -3.01619840453210     -1.75265073942474
  C           4.57594048210958     -2.62378378812250     -1.90491043269671
  C           5.12829511434723     -1.54140750580112     -1.23292044815737
  C           4.23584844994652     -0.82770840579684     -0.38498162965887
  C           2.89418204922513     -1.24084451720256     -0.21073443102946
  C           2.35790213667526     -2.36443211897042     -0.90400293884198
  N           2.10150954150982     -0.58115383902744      0.65679616861677
  N           4.67883635910202      0.28510722235589      0.23331260621471
  C           2.54765511631518      0.45645856000965      1.30107851609504
  C           3.87399351208045      0.93117723549952      1.03370140087648
  O           4.25796472916525      2.06732385939168      1.61532802221098
  C           5.52716708483383      2.57572235861580      1.23338195760743
  H           5.65605814298908      3.49980972320187      1.79240276697828
  H           6.31913682150419      1.86486936042231      1.46772513680240
  H           5.54738078006986      2.77425453860759      0.15987091487083
  F           2.85230348957675     -4.07969081232368     -2.47796411635320
  F           5.32950843253007     -3.36834386063147     -2.73359220933660
  C           6.50780377412153     -1.15268354311961     -1.34273848907016
  C           7.42226827382605     -1.47576299891871     -2.32333494966831
  S           7.24558732232993     -0.20501391894726     -0.09092790862854
  C           8.68985839527867     -0.94833612659568     -2.08657306648696
  H           7.18765895100764     -2.05777809847568     -3.19506898249472
  C           8.77806534663702     -0.24050765399685     -0.90359993487029
  H           9.51344331097623     -1.10123624378917     -2.75820286968461
  C          -4.87649153056264     -3.28720066592331      1.35876851381926
  C          -3.63131303343858     -3.58216237028563      0.78426282501778
  C          -2.70985820009725     -2.59121519201494      0.47999027476896
  C          -3.10020984701071     -1.25112628620396      0.76369300610282
  C          -4.34941955126438     -0.96564318154363      1.36700633045420
  C          -5.24551925244765     -2.00491763940516      1.66220760381440
  H          -6.19485667270851     -1.78714547558075      2.12097093616303
  N          -4.68705471762968      0.30991334106754      1.67581368754592
  N          -2.27386491479361     -0.24199675007273      0.41940082635125
  C          -3.86796880119489      1.27231250981277      1.37519423915443
  C          -2.63720520948347      0.98283291497199      0.69078959139132
  O          -1.87856071883500      2.01362642635621      0.31780734338307
  C          -0.73607421492325      1.70595782267747     -0.46573882618478
  H          -0.25646635457475      2.65905717772158     -0.67731976325989
  H          -0.06129086716314      1.04104222028951      0.07302732425087
  H          -1.03540246099646      1.21608484799933     -1.39462775724157
  F          -5.71148953990737     -4.30510542637102      1.62856580705199
  F          -3.34546558393690     -4.87739225899883      0.56200674145950
  C          -1.40794599130555     -2.86643842871544     -0.07428211893494
  C          -0.97826000888945     -3.98639949259378     -0.75256251909672
  S          -0.11711924542253     -1.72838939138778      0.13354856822960
  C           0.36425013419565     -3.92227864289131     -1.12191040700124
  H          -1.60957555962127     -4.82098511526322     -0.99511432023743
  C           0.99371230507443     -2.76630634438164     -0.70346870845584
  H           0.85172567149298     -4.71052935692885     -1.66381014074835
  C          11.09803483755201      0.66776730904323     -1.03697092656059
  C          12.19441330969875      1.31556424901642     -0.46699853287170
  C          12.21225661898113      1.78104849135029      0.84298212083015
  C          11.01518244641423      1.55386899941350      1.58107915374463
  C           9.90160348346976      0.90107521303701      0.99936678347150
  C           9.91763256462852      0.43102825880238     -0.34497407482703
  N           8.79170848303592      0.68626720991440      1.73235556641778
  N          10.94817330944926      1.97311010500906      2.86222869024987
  C           8.73627231515386      1.06983456931448      2.97240994491563
  C           9.85932819704743      1.74998851352905      3.55024823885052
  O           9.74487784266689      2.13956591968806      4.81735205342339
  C          10.85531121531211      2.80203623221111      5.39596376386231
  H          11.73778896769009      2.16039361338938      5.37871697635683
  H          11.08320709885762      3.71925969847390      4.85039709287521
  H          10.56582364612264      3.02732330161978      6.41983923369018
  F          11.23500887129913      0.29063723401736     -2.32149612628166
  F          13.26049479304481      1.47702389873428     -1.27212070259397
  C          13.34161943781222      2.44791540809433      1.43356078441617
  C          14.57173761895968      2.72691109786713      0.88297882631180
  S          13.26492616507712      3.03151531447367      3.07132716789965
  C          15.43717457160364      3.39888307369636      1.76119835928751
  H          14.85821600339922      2.46249069438630     -0.11658383413144
  C          14.86954469226541      3.63212415187509      2.97446773998820
  H          16.43687106973491      3.69359933300532      1.49651251068010
  H          15.30292127797279      4.12249369950342      3.82363582191180
  C          -4.22345276414871      2.67551650062956      1.72145200635226
  H          -5.19225419979511      2.69562091727357      2.21059969381430
  H          -3.46620710362748      3.09736681900127      2.37995024675994
  H          -4.24912436898229      3.28333332080387      0.81876348652123
  C           1.67713527024614      1.13855644702774      2.29738504840553
  H           2.17469136455192      1.15734614209145      3.26550679715869
  H           1.50490063700899      2.17130219478305      1.99879051883027
  H           0.73196640506470      0.61027706920402      2.38029557115720
  C           7.52020904911948      0.78515053836389      3.78196836099268
  H           6.82073874040429      0.19581029910891      3.19656537375568
  H           7.80002392087309      0.24076743277467      4.68211046290060
  H           7.05263694229937      1.71689049122641      4.09622241824131
