111
Coordinates from ORCA-job PTQ11-GFN2-xTB-TETRAMERO E -224.716188036300
  C           3.14593444029636     -2.83943361979269      1.26245261168956
  C           4.45630902013108     -3.16380599617384      0.90516910952194
  C           5.39565153875257     -2.21454207437094      0.52626645575500
  C           4.92782789496391     -0.86979909341026      0.49352109206902
  C           3.60382949973238     -0.53702242894592      0.87948856331304
  C           2.66742409281165     -1.53459456600435      1.28327657656924
  N           3.22086044951023      0.75419270521926      0.89592638496916
  N           5.76333573878217      0.08784784241447      0.05222688691333
  C           4.05440678982900      1.67241666177495      0.51267659802478
  C           5.34966375331454      1.33053764545698      0.03425657508998
  H           3.73735838058667      2.70379954269614      0.55624334969080
  O           6.12173077271117      2.30158036004521     -0.44723024309656
  C           7.35630442516666      1.90219212353955     -1.02493116076043
  H           7.17956589006750      1.22826393769989     -1.86564434954943
  H           7.83233116836933      2.81821065529864     -1.36708347333913
  H           7.98036023932520      1.38800479599085     -0.29441445261784
  F           2.35137714295432     -3.87320478288966      1.59403354972305
  F           4.78766695918359     -4.46503202952202      0.96558066287505
  C           6.76016336176242     -2.52744006672678      0.20105480462443
  C           7.30644047823378     -3.74359500095155     -0.15391008222767
  S           7.98354613646348     -1.30154900055645      0.30384662014847
  C           8.68185261731301     -3.68630290836460     -0.36593238015535
  H           6.73603513360327     -4.64534878424100     -0.27699553731903
  C           9.22007441459845     -2.43328450057544     -0.14410247820418
  H           9.25768401358854     -4.54483552026214     -0.65580515697321
  C          -3.93793943379523      1.80730982222126      3.21577892720786
  C          -2.92602076531463      0.84119527874143      3.12138686617255
  C          -1.87648135421220      0.95781025260057      2.22025509790807
  C          -1.88167049050105      2.11513416824760      1.38916233223071
  C          -2.90403350594470      3.08972000821678      1.49924025692409
  C          -3.94387178501639      2.92506420382836      2.42703011114174
  H          -4.71776242431046      3.66885970351100      2.51008140562375
  N          -2.88863924761077      4.19604288521755      0.71688809381914
  N          -0.90472992004956      2.26633640760108      0.47091068901032
  C          -1.93464771204366      4.34206032033508     -0.15184964806343
  C          -0.92150901269692      3.33038658364438     -0.28755634648359
  O          -0.00009410457820      3.50994133895756     -1.23173856286331
  C           0.95639077713581      2.47545172650552     -1.38840339816700
  H           0.46327651956618      1.53609829289198     -1.64633520131920
  H           1.61248555388060      2.79597776087316     -2.19457025588119
  H           1.51733975167885      2.32521363153975     -0.46587347143724
  F          -4.91524020494564      1.61923708923056      4.11865794465946
  F          -3.00001440682135     -0.20304676735020      3.96555360673218
  C          -0.81719237099916     -0.01397895969330      2.11494328699217
  C          -0.79653716344707     -1.30984418233174      2.58783034322042
  S           0.68856770054527      0.39754081562102      1.36041105137939
  C           0.40346943186390     -1.96923621737284      2.33492708460897
  H          -1.62157224152797     -1.78218928272441      3.08694927481643
  C           1.33576316560225     -1.18104158986345      1.68838698808386
  H           0.57738323795384     -2.98417972397295      2.63840691391206
  C          11.58924795839637     -2.77314173656067     -0.85040747328241
  C          12.91751517356980     -2.35088203705394     -0.92549607492293
  C          13.35233053313249     -1.12716074456950     -0.43312455555899
  C          12.34201990613516     -0.30362241533566      0.13822399616135
  C          11.00075534085202     -0.74175816330804      0.23708908175558
  C          10.58636036076856     -2.00944988540573     -0.26474001393392
  N          10.08846102341428      0.03731369085734      0.85128139964849
  N          12.67414104249250      0.93318370408016      0.55860698963101
  C          10.42333760771568      1.20537627138265      1.31478427483661
  C          11.75892545221798      1.68502765799000      1.10912320814751
  O          12.03633385738567      2.93393196403212      1.48223114468111
  C          13.32831035956443      3.42074931412873      1.15170994283228
  H          13.47613927428648      3.39621459656146      0.07015968587844
  H          13.36029202009471      4.44516855259696      1.51580456609484
  H          14.10480728677543      2.81642921455613      1.61997282500662
  F          11.31741506408351     -3.98016615286346     -1.37978646578576
  F          13.78810709872436     -3.20737095390196     -1.48871620474186
  C          14.72347341071391     -0.69759283222726     -0.45987497764164
  C          15.76172913518062     -1.16564353061840     -1.23800892248964
  S          15.27367030324677      0.52211881644528      0.64459529858720
  C          16.97519059987330     -0.53605830456317     -0.96985457858688
  H          15.65375259831186     -1.92435469467840     -1.99059889010445
  C          16.89584859321760      0.40115877944830      0.04193552766245
  H          17.88009679077510     -0.77955503910043     -1.49386375259813
  C          19.18941297246354      1.38214946035142     -0.00576888260558
  C          20.18860616679574      2.18774382233787      0.54127746329533
  C          20.03057066748206      2.90913674779130      1.71930457450551
  C          18.75721998962195      2.77463495030021      2.34385599543487
  C          17.74247643060813      1.96133567484609      1.78413804729330
  C          17.93868110776057      1.23007941693262      0.57787638094997
  N          16.55557357369609      1.84282538989238      2.41077468748710
  N          18.52001072049418      3.44027849029621      3.49370905501209
  C          16.33592310650019      2.46587205160240      3.52950062791579
  C          17.36017274551831      3.30514292315886      4.08130964869868
  O          17.07845987879685      3.93602526348157      5.21826629752151
  C          18.08988867129254      4.75854289648689      5.77266277947667
  H          18.36135017988739      5.55537088107259      5.07824665999195
  H          17.66795766978179      5.17305655572159      6.68535683297326
  H          18.98346582463987      4.17272404232863      5.99427433748509
  F          19.49537751092355      0.76006312532084     -1.15910310392964
  F          21.34201126118154      2.23743235701499     -0.14992370841378
  C          21.05947123613433      3.73876117322156      2.28660717667064
  C          22.33998991789515      3.96558269428901      1.83574925057030
  S          20.76558945568425      4.63329093747605      3.75022500077134
  C          23.07165934248887      4.84378821838350      2.65122588457965
  H          22.75450825062298      3.52199473781453      0.95115589280051
  C          22.35259233516848      5.28515612628867      3.71748520570956
  H          24.08778804768030      5.13136481379647      2.44857313302523
  H          22.66434433356744      5.95748839608568      4.49217039471673
  C          15.03622591562244      2.28927489738579      4.23287548245963
  H          14.42931047790842      1.56121294077239      3.70291792610385
  H          15.21568929072947      1.94975169328392      5.25143703586920
  H          14.51079098648803      3.24092928277611      4.29405198491476
  C           9.41943167923949      2.02755905150176      2.04394749156991
  H           8.48571214504614      1.47922327874397      2.12592038829701
  H           9.79481468513593      2.26542784355219      3.03776415261606
  H           9.25669799520971      2.96958662866007      1.52292926424554
  C          -1.90455626806562      5.55405619992743     -1.01488959933986
  H          -2.74886498283012      6.19272783771412     -0.77509646967975
  H          -0.97291556648783      6.09534634681159     -0.86011633015054
  H          -1.94425389207382      5.26233031686208     -2.06288090708105
