236
Coordinates from ORCA-job PTB1-OPT-FREQ-R2SCAN-3C-DEF2-TZVPD-9UN-cont E -19854.993474523551
  C           5.95362713340869     14.82987916735877    -15.91454207490833
  C           6.75141019131295     15.47977888229517    -16.83496661935198
  C           7.23703594223223     16.75266874795756    -16.50233835801169
  C           6.89406469418616     17.32561061656956    -15.23951580089897
  C           6.09579052572348     16.67520778850872    -14.31899935561058
  C           5.61091379441807     15.40290859204243    -14.65209386666718
  S           7.61008672613781     18.90003688647663    -15.05665175581766
  C           8.35824966172648     18.80092503769710    -16.64102573341530
  C           8.06393496730375     17.61183976122938    -17.26740756464311
  H           8.43289737188361     17.35962077702409    -18.25569185291339
  C           4.48621007090274     13.35223948408222    -14.50952149307848
  C           9.15690281226672     19.87882247297179    -17.12712072568484
  C           9.48430136914237     21.09164228205305    -16.54183705762842
  S           9.90543820711628     19.79768312434528    -18.69334630738345
  C          10.31826743941093     21.93856552701522    -17.33277617133399
  C          10.64472615531654     21.36462019863985    -18.56391601239657
  C           4.78368784386547     14.54366019198269    -13.88739626506678
  H           4.41563874859922     14.79974895118189    -12.89969206210567
  S           5.23703550345700     13.25571890060181    -16.09424751939517
  H           5.84535688991006     17.12611871021448    -13.36375191096962
  H           7.00193605926682     15.02904176146531    -17.79033100044779
  C          10.61114527415900     23.16877913690204    -16.66130873225665
  H          11.22146022896156     23.96986304288394    -17.05553825467865
  C          10.02618123291617     23.23163821033435    -15.43836825758323
  H          10.08776673836139     24.04771934673294    -14.73011882643827
  S           9.09188932946655     21.82436255178138    -15.01902139397942
  C          -0.94841057434162      9.63404896149821     -7.43116243539412
  C          -0.15329132785359     10.55289539075506     -8.08670593006887
  C           0.31632508111939     10.22251877134808     -9.36613441258497
  C          -0.03968158230556      8.96373431458290     -9.93982299900939
  C          -0.83530850879088      8.04481436644810     -9.28376361899135
  C          -1.30390257169690      8.37555889526819     -8.00488787141394
  S           0.65742702972602      8.78312342776297    -11.52294745494325
  C           1.41482264996374     10.36327175778298    -11.42658370276368
  C           1.13740464501275     10.98664033011860    -10.23195644928109
  H           1.51382623208590     11.97231373031349     -9.98052241151617
  C          -2.40642898670401      8.23104837155227     -5.94246333136257
  C           2.20368019598105     10.84919149713421    -12.51192915052090
  C           2.50822183834837     10.26950919317516    -13.73333230876852
  S           2.96969496150504     12.40685192877601    -12.42982809366768
  C           3.33800458905379     11.05834819394877    -14.58638164785607
  C           3.68485796841200     12.28193508002381    -14.00831780105664
  C          -2.12544457532798      7.61179335099675     -7.13901105663192
  H          -2.50207483736560      6.62727025848788     -7.39486071180363
  S          -1.64664562736442      9.81153528923135     -5.84850806042377
  H          -1.09588241862449      7.09262757432462     -9.73540166157575
  H           0.10718504252731     11.50529108275445     -7.63531835952073
  C           3.60566632500486     10.39351353637183    -15.82592357079233
  C           3.00721241229075      9.17714528760115    -15.88939043497905
  H           3.04941991266334      8.47469252693376    -16.71169438923048
  S           2.08929301448249      8.75651033550310    -14.47180234806274
  H           4.20778021374402     10.78787210606048    -16.63313626590689
  C          -7.79194364479959      1.14186710002338     -2.16391148103673
  C          -7.00447858097221      1.80094596121772     -3.09245855660753
  C          -6.53729990531991      3.07956329668958     -2.76827259894792
  C          -6.88309658061532      3.65492750632850     -1.50813912959497
  C          -7.66944815438849      2.99702896121152     -0.58095516882291
  C          -8.13605603479109      1.71897579085899     -0.90540659718958
  S          -6.18880428634387      5.24053379429469     -1.33625393743417
  C          -5.44527390727514      5.14301400706682     -2.92305824746526
  C          -5.72365930661644      3.94891137626111     -3.54224332248599
  H          -5.35529001515507      3.69690584009657     -4.53078868369631
  C          -9.21740007473465     -0.33176158752040     -0.75884816051220
  H          -9.80894586647280     -1.15776444775827     -0.38704921623197
  C          -4.66255208329066      6.23179227138332     -3.41721475541089
  C          -4.35742230207395      7.45417499862539     -2.84208175326955
  S          -3.90888075670691      6.14891342300045     -4.97996915609703
  C          -3.53604114790920      8.30871095006776     -3.63923938742993
  C          -3.19765717067480      7.72954877006088     -4.86409645537523
  C          -8.95517398107514      0.84144068403627     -0.12842670063214
  H          -9.32868971258621      1.08425428028487      0.85964520355426
  S          -8.48979235913064     -0.44381128006420     -2.32770872004809
  H          -7.92257203098307      3.45003786687876      0.37278439509430
  H          -6.75106645665474      1.34845739613194     -4.04629038033787
  C          -3.26740744887340      9.55046386253313     -2.97882968161827
  H          -2.67143993765276     10.35907032439562     -3.37964936608546
  C          -3.85652390365641      9.61428187141415     -1.75801665850435
  H          -3.81147299877552     10.43826855831440     -1.05769028750406
  S          -4.76681609390993      8.19467178683900     -1.32688259312811
  C          26.85200777257262     36.83388798000937    -34.77981673206036
  C          27.65560716252351     37.74772882082217    -35.43188183689885
  C          28.13299122859643     37.41218290441437    -36.70712116605350
  C          27.77617124629549     36.15320434393125    -37.28013181610415
  C          26.97222721753493     35.23923854897616    -36.62753437494764
  C          26.49553004191644     35.57529466017100    -35.35289964705256
  S          28.48392108882439     35.96576514555074    -38.85774566772880
  C          29.24622559845955     37.54347619778873    -38.76023822792930
  C          28.96276619186029     38.17099128844405    -37.56908679350026
  H          29.34046993301221     39.15622674261790    -37.31790346396107
  C          25.37791787179315     35.44054328278197    -33.29785507524805
  C          30.04442242909239     38.02370304420083    -39.84110535418176
  C          30.35034257254433     37.44265193598390    -41.06156112515247
  S          30.82350823659755     39.57463664686591    -39.75328519003018
  C          31.18999275141355     38.22591477350284    -41.91002616035336
  C          31.54317039121159     39.44648608906815    -41.32938639692132
  C          25.66514662211513     34.81701655104433    -34.49105960983624
  H          25.28797075088266     33.83254479044370    -34.74633699133810
  S          26.14288212698012     37.01857261330696    -33.20285517605666
  H          26.71113536736091     34.28690131254294    -37.07855445883078
  H          27.91668388231408     38.70023635719826    -34.98109536011108
  C          31.45611241026935     37.56148913292164    -43.15012292573893
  H          32.06296878268885     37.95328598845643    -43.95503932168178
  C          30.84808597622524     36.35014434672571    -43.21794318068421
  H          30.88706801491400     35.64899102330860    -44.04150790946576
  S          29.92184230902186     35.93445519740492    -41.80420399600371
  C          19.85567375050940     28.42683683892138    -29.58774991373821
  C          20.65747115452330     29.07424669983470    -30.50645805828212
  C          21.14712284041212     30.34521463537700    -30.17238680377797
  C          20.80399951328071     30.91884220208835    -28.90988847000965
  C          20.00173811558374     30.27094890745709    -27.99110943881999
  C          19.51280662026346     29.00056676653529    -28.32567068410602
  S          21.52528657583296     32.49062781782656    -28.72508061415035
  C          22.27587278271431     32.38953794436087    -30.30818865507342
  C          21.97840640463539     31.20176433741966    -30.93562006776332
  H          22.34805875307291     30.94876490771571    -31.92344357241111
  C          18.38052947923983     26.95390747546676    -28.18597612202723
  C          23.07912551183567     33.46485156005573    -30.79239243495480
  C          23.40773867851158     34.67727564579526    -30.20694486081506
  S          23.83261304186901     33.38057989296321    -32.35610312454533
  C          24.24643628589273     35.52145971426243    -30.99580987817405
  C          24.57549613032744     34.94569145192929    -32.22542084431053
  C          18.68124933208218     28.14396047209138    -27.56277325454494
  H          18.31263473964924     28.40086931595754    -26.57548922185266
  S          19.13344290664929     26.85550713354468    -29.76957838714380
  H          19.75119858030757     30.72234633272491    -27.03611885709569
  H          20.90806213521633     28.62304739884227    -31.46158424448467
  C          24.54023552458043     36.75147592961668    -30.32435866283352
  C          23.95142680216981     36.81680578574174    -29.10340408774832
  H          24.01281085701423     37.63325765206360    -28.39556722388640
  S          23.01221180437646     35.41219964955042    -28.68602456309603
  H          25.15398995725581     37.55065293390279    -30.71713841184480
  C          12.90965900376757     23.25942043877842    -21.12373341758147
  C          13.71003669533515     24.17503676061589    -21.77725701380816
  C          14.18328664541350     23.84185826091343    -23.05467390609052
  C          13.82565569549848     22.58340176463452    -23.62830679388790
  C          13.02497968178657     21.66762739107093    -22.97422754248090
  C          12.55246842108830     22.00129442452803    -21.69742915765082
  S          14.52802390078449     22.39895672583622    -25.20865574432992
  C          15.28960321221027     23.97701590304653    -25.11127370184040
  C          15.00962007628071     24.60256805860182    -23.91827246286367
  H          15.38795159643255     25.58744284891408    -23.66660624639513
  C          11.44245981222931     21.86217813898613    -19.63856650214826
  C          16.08368715266732     24.45945254718946    -26.19417934198168
  C          16.39069639862132     23.87777361844193    -27.41406278605103
  S          16.85413868312129     26.01490106617755    -26.11072845523276
  C          17.22577615260678     24.66336479219985    -28.26486690465208
  C          17.57431543421924     25.88643002019039    -27.68661541152430
  C          11.72607144267869     21.24078540952000    -20.83374595266076
  H          11.34906326731533     20.25628892366585    -21.08916139591675
  S          12.20587502598601     23.44099184722542    -19.54400132767111
  H          12.76328953077923     20.71567863282139    -23.42571714783409
  H          13.97178614305251     25.12711822484923    -21.32595846025345
  C          17.49597192272215     23.99659644704475    -29.50282066430019
  H          18.10228683120233     24.38840117928689    -30.30812911598089
  C          16.89417960826600     22.78194694091782    -29.56734638876694
  H          16.93727678037937     22.07855165922305    -30.38879340989777
  S          15.96989394827396     22.36541899399504    -28.15264110781544
  C          47.97459241721630     55.46042795528480    -56.77515941514561
  C          48.78527552775284     56.10399234712263    -57.68974399225035
  C          49.24835157728121     57.38754613155270    -57.36950885614154
  C          48.87135042746579     57.97806889034043    -56.12539630247654
  C          48.06044430007167     57.33437450590342    -55.21056530391599
  C          47.59775612948476     56.05114477399800    -55.53134713616120
  S          49.56539870602418     59.56377084049526    -55.95636427133037
  C          50.34808645466626     59.44555073174978    -57.52123793746249
  C          50.08271694158774     58.24499878943705    -58.13241445196108
  H          50.47549650855996     57.98035343382768    -59.10821179997937
  C          46.49405872149840     53.98992416301843    -55.37617165856165
  C          51.14596815868597     60.53310177683275    -58.00397787039577
  C          51.43259193217870     61.76030420429956    -57.42896931815739
  S          51.94615681028488     60.44461451434997    -59.54399726051984
  C          52.27846232900683     62.60229920785715    -58.22099160360692
  C          52.63564294682370     62.00344159153913    -59.40947456996396
  C          46.76389152691690     55.19487022668192    -54.76906859311493
  H          46.37250175232730     55.46336123315238    -53.79367807184500
  S          47.27976582120613     53.87519778411225    -56.94276250081649
  H          47.78397091880652     57.79920125131607    -54.26924106669657
  H          49.06178960079384     55.63932119743589    -58.63119138512869
  C          52.54195113077569     63.85716169578344    -57.58029434265568
  H          53.15660224458505     64.64447174984247    -57.99887283986155
  C          51.92726796910145     63.94755843673473    -56.37697219990917
  H          51.95846134608750     64.78186430259900    -55.68799765483911
  S          50.99561950192762     62.53616264125220    -55.93819996734973
  C          40.89921188029860     50.35617993089639    -48.37890030179621
  C          41.70469692857896     51.26937088982620    -49.02968558563140
  C          42.21465101480234     50.91792939419006    -50.28786590703428
  C          41.88787595589308     49.64395758709502    -50.84545701162494
  C          41.08229758642828     48.73058208336860    -50.19406524436036
  C          40.57269136130851     49.08271517258351    -48.93661982170843
  S          42.63263312808812     49.43839157928475    -52.40366322523484
  C          43.37167506790170     51.02780586169096    -52.31793341945649
  C          43.05333381655571     51.67256034103164    -51.14499307326913
  H          43.41329200628590     52.66667267624084    -50.90292460279273
  C          39.41185569384837     48.96900443833204    -46.90437176678761
  C          44.18676378955433     51.49956359692748    -53.38998535626610
  C          44.53867371841618     50.89546618220518    -54.58639995558305
  S          44.92532361928056     53.07132398286900    -53.32311520291765
  C          45.38339841048067     51.67663136492627    -55.43208283299661
  C          45.69303159736469     52.91900420796664    -54.87392211667552
  C          39.73390792878205     48.32833495097766    -48.07942666413918
  H          39.37683433010013     47.33381075659014    -48.32447578289182
  S          40.15268732784035     50.55918939090612    -46.82157329629714
  H          40.84451289325315     47.76665676738672    -50.63322341240637
  H          41.94269329940849     52.23334245055765    -48.59063487187684
  C          45.70202522595831     50.98557312504219    -56.64514170950847
  C          45.12512834159275     49.75847416416074    -56.69725774282139
  H          45.20529955808805     49.03652508541148    -57.49959565986605
  S          44.16806321699762     49.35785305910002    -55.29945869867167
  H          46.32471732164059     51.36952623328713    -57.44169649773376
  C          33.85524010110408     41.97134962787364    -43.21424479257406
  C          34.67493387999701     42.60977863737375    -44.12346809396482
  C          35.14874796848206     43.88882153943506    -43.79748131936347
  C          34.77161714249618     44.47965715555070    -42.55273343303743
  C          33.95134423274162     43.84086077653944    -41.64356742350179
  C          33.47847957305757     42.56229027254712    -41.96991815440825
  S          35.47850501560563     46.05878763056758    -42.37515132121916
  C          36.26778823593157     45.93819801869589    -43.93794973552865
  C          35.99302473297573     44.73889953443398    -44.55372117104969
  H          36.38846233040574     44.47289401223178    -45.52804570047632
  C          32.35380091451066     40.51173243801814    -41.82648655803606
  C          37.07507749411507     47.01161950831845    -44.41958899399373
  C          37.38702539997468     48.23233772732625    -43.84237770354703
  S          37.85772933474214     46.91307879540798    -45.96812057396357
  C          38.23665199155597     49.07125477967546    -44.62517549950181
  C          38.59153584770102     48.48277249743649    -45.84150073585741
  C          32.63269115722321     41.71288005521213    -41.21461526687060
  H          32.23585167254905     41.98409294208172    -40.24220843940216
  S          33.14714099191209     40.39272919248356    -43.38880263876973
  H          33.67480068150268     44.30542334928988    -40.70216332340622
  H          34.95112013478101     42.14561753089284    -45.06522833096375
  C          38.51316776884033     50.30991480830550    -43.96227754939140
  H          39.13146738044342     51.10687506934977    -44.35242561490176
  C          37.90155581275938     50.38652809008287    -42.75327647396341
  H          37.94660204735126     51.21108128706705    -42.05365343288986
  S          36.96037765470866     48.98269249634277    -42.33747129394389
  H          53.26015019355095     62.39412436709208    -60.20075967227456
