314
Coordinates from ORCA-job PTB1-OPT-FREQ-GFN-xTB-12UN E -605.054513382970
  C           5.88373405769526     14.86703622436764    -16.28968804365105
  C           6.71769722312692     15.50873599393662    -17.17512717817197
  C           7.14233488597476     16.79928469441308    -16.85348721917507
  C           6.70500347836904     17.39697407714516    -15.64065883898036
  C           5.87068024041853     16.75408368251297    -14.75559166734319
  C           5.44607325275121     15.46373732082857    -15.07698971239111
  S           7.36041311345324     19.00253664758947    -15.45290379119313
  C           8.20702840634585     18.86460292902793    -16.98559950243532
  C           7.99067470029422     17.65684872198339    -17.59051173190867
  H           8.42904381558878     17.39440417232413    -18.53730411769480
  C           4.37723519387161     13.39548989204099    -14.94025345833624
  C           9.00311320680013     19.93710412090186    -17.46178165606184
  C           9.25556889788904     21.16811860913066    -16.89848699422264
  S           9.85367229394883     19.81949912260657    -18.98457143226469
  C          10.11205233936734     22.01468188087344    -17.65704323994481
  C          10.53363886859642     21.42343811644288    -18.83870946096546
  C           4.59764112181189     14.60595262618063    -14.34026698238181
  H           4.16031580705644     14.87123706181030    -13.39367782930744
  S           5.22715775306269     13.26249956916454    -16.47340202319957
  H           5.55037599627066     17.22559648118753    -13.84033418389950
  H           7.03804053653139     15.03724463776719    -18.09049924232957
  C          10.32218541330335     23.26483777202146    -17.00671354917348
  H          10.93503318838088     24.05258089158191    -17.40340129583851
  C           9.66062789195797     23.34281661662989    -15.83390194259171
  H           9.64477555701431     24.16633527991764    -15.14669253553006
  S           8.73780079242877     21.92253077103164    -15.42563394051309
  C          -1.40508594416449      9.75503813785757     -8.15252031699970
  C          -0.59404887248892     10.67307278257330     -8.77769989994878
  C          -0.03189000306007     10.31818299388028    -10.00543261767214
  C          -0.31259051592718      9.03995332927370    -10.55911500889446
  C          -1.12416538897729      8.12224394873107     -9.93276652817134
  C          -1.68620807883425      8.47695230581338     -8.70522240725200
  S           0.49528558578983      8.82093412623475    -12.08954525654907
  C           1.19643071435493     10.42763569532551    -11.97938612825576
  C           0.82481534730134     11.07788085013428    -10.83463997800246
  H           1.15820178385717     12.07286307390615    -10.59725922212758
  C          -2.91831245753044      8.36323624206407     -6.72849925645135
  C           2.04153817737745     10.91150019792196    -13.01039386690554
  C           2.44747142703900     10.30469632843748    -14.17808292647009
  S           2.74956173886634     12.50727928891657    -12.91902245566774
  C           3.30913270400646     11.08736709019504    -14.99716035645923
  C           3.57729248689617     12.33293599663287    -14.44908226550306
  C          -2.54309061970487      7.71779323400070     -7.87563864830541
  H          -2.87528398352649      6.72292778478647     -8.11552350810019
  S          -2.21365403139488      9.97027516912906     -6.62311129319214
  H          -1.32450700411013      7.15726285082084    -10.37014567466732
  H          -0.39365934380781     11.63815425447197     -8.34031606693368
  C           3.68161020373075     10.38924154009084    -16.18204009332526
  C           3.12926555844655      9.16007205249799    -16.24008063705940
  H           3.24311853250520      8.42916905119160    -17.01694183805625
  S           2.12307507618967      8.75160277079303    -14.87763858790791
  H           4.32633222617887     10.79364242715227    -16.93992191484282
  C          -8.41964299718409      1.31059118909056     -3.14968480008525
  C          -7.58388796532436      1.95242409263895     -4.03714606554479
  C          -7.15928432850616      3.24121136774157     -3.71675377002709
  C          -7.59518000403725      3.84039034748800     -2.50558050041807
  C          -8.43078985269250      3.19726542608165     -1.61933212960363
  C          -8.85436086459709      1.91014330984438     -1.94015120152106
  S          -6.93931742798028      5.44587553201384     -2.31917375320851
  C          -6.09253905497070      5.30593098244328     -3.85181279752499
  C          -6.30891601043814      4.09944258295830     -4.45553613118850
  H          -5.87086075611143      3.83534248697808     -5.40202226761608
  C          -9.91169347762929     -0.14254378286925     -1.81205411365891
  H         -10.50755777061577     -0.96806709947370     -1.47407765240845
  C          -5.29550088812180      6.37933110160197     -4.32861533602478
  C          -5.04307782224137      7.60999806552806     -3.76613885465413
  S          -4.44512583604400      6.26027830132931     -5.85077041983510
  C          -4.18646486929486      8.45643206249847     -4.52546635926770
  C          -3.76546077834509      7.86457508577444     -5.70664663771413
  C          -9.71056120469337      1.04186321155562     -1.20014722824392
  H         -10.14568514359730      1.31087549953812     -0.25430635756830
  S          -9.08090467033868     -0.29399851355697     -3.32569854290269
  H          -8.74961645530272      3.67147299908737     -0.70466000242367
  H          -7.26434021712469      1.47946163699825     -4.95209812793797
  C          -3.97594789170396      9.70683369743947     -3.87565573080831
  H          -3.36306261267150     10.49442563939388     -4.27278984819991
  C          -4.63723978878826      9.78543666497736     -2.70273326181362
  H          -4.65267987768659     10.60938739938562     -2.01599805460992
  S          -5.56078111570356      8.36585883441527     -2.29347486867145
  C          27.23972193930003     36.85070159631042    -34.38768910012131
  C          28.05592691475548     37.76601702645587    -35.00996048592246
  C          28.61902005694164     37.41021158994296    -36.23699844135258
  C          28.33385825894806     36.13388891482183    -36.79301838290004
  C          27.51716836166802     35.21902249895204    -36.16966665381680
  C          26.95426648480068     35.57455130459449    -34.94276263499764
  S          29.14359669367567     35.91332142843454    -38.32211505624547
  C          29.85193981106405     37.51643155765002    -38.20806926127171
  C          29.48089612462408     38.16696097109175    -37.06324994291528
  H          29.81848510804966     39.15998003623987    -36.82376677320637
  C          25.71790906484911     35.46320928260089    -32.96869491661182
  C          30.70173501591679     37.99730083461476    -39.23632772159458
  C          31.10699490397676     37.38990123902671    -40.40394199521297
  S          31.41737172516603     39.58947137299054    -39.14145104945234
  C          31.97445333977623     38.16911494339041    -41.21997818597298
  C          32.24787312253518     39.41247732948652    -40.66952718727910
  C          26.09281258065430     34.81781339461131    -34.11613063292994
  H          25.75696879033508     33.82471778091213    -34.35820405457184
  S          26.42896557659941     37.06720360227133    -32.85964487645823
  H          27.31350862535693     34.25551608902938    -36.60872651317703
  H          28.25960721246763     38.72964180615985    -34.57092187872951
  C          32.34604346118499     37.47058954779704    -42.40492369283866
  H          32.99446686902927     37.87265408065335    -43.16080228382530
  C          31.78760786285691     36.24438756560944    -42.46584949306071
  H          31.89941188913957     35.51387981876473    -43.24337414841438
  S          30.77578950142617     35.83969522843741    -41.10648959638021
  C          20.19644119316485     28.42023080331381    -29.41154834029194
  C          21.03264596418481     29.06071133486242    -30.29572977866754
  C          21.45987406259101     30.35006715228419    -29.97274694058401
  C          21.02276806296667     30.94791747144392    -28.75990408881167
  C          20.18613991713184     30.30630018469007    -27.87615790937002
  C          19.75902239031814     29.01709640004830    -28.19887679653096
  S          21.68142172820621     32.55193921654264    -28.57052246287594
  C          22.53002219137963     32.41274342872103    -30.10194543014970
  C          22.31127286161900     31.20599650935675    -30.70806809429137
  H          22.75042797504164     30.94297111311803    -31.65431053714547
  C          18.68596973270427     26.95103967206381    -28.06451461251685
  C          23.32956774286327     33.48346363240003    -30.57631129824096
  C          23.58494991260616     34.71328708945851    -30.01168934808596
  S          24.18298687008656     33.36397913758148    -32.09735634191811
  C          24.44547351798870     35.55764102985417    -30.76809844561489
  C          24.86742209418403     34.96577032716042    -31.94934692442924
  C          18.90823729267984     28.16063521744480    -27.46350108931655
  H          18.47070830070618     28.42616555710039    -26.51708219068221
  S          19.53664944479099     26.81731993769750    -29.59708930584712
  H          19.86604448871588     30.77784223340620    -26.96084789146581
  H          21.35276515958596     28.58918618076085    -31.21115458851482
  C          24.65762271030500     36.80709499959410    -30.11697895526640
  C          23.99412472898172     36.88642826305642    -28.94539701125941
  H          23.97968036885753     37.70945832824503    -28.25757819301160
  S          23.06895108399454     35.46741123764486    -28.53809153722135
  H          25.27421117981746     37.59294433414971    -30.51159864545081
  C          12.89612754543953     23.31425325621084    -21.28209338113487
  C          13.70847083946941     24.23177534439298    -21.90621240401152
  C          14.27080988169103     23.87698915349538    -23.13390344213307
  C          13.98863084511034     22.59951603362508    -23.68880018613377
  C          13.17582117538512     21.68241471493981    -23.06356734645910
  C          12.61373084676212     22.03688205939712    -21.83596519290218
  S          14.79735253698928     22.38027935694035    -25.21865968679877
  C          15.49984526614979     23.98618061620118    -25.10727018710655
  C          15.12858278607838     24.63618613397402    -23.96222378637677
  H          15.46277985212913     25.63072855276559    -23.72424699777679
  C          11.38105070107186     21.92276523488117    -19.85969967797639
  C          16.34616347563611     24.46938732855097    -26.13732949041095
  C          16.75158688566475     23.86274636403979    -27.30527871072429
  S          17.05575185752780     26.06442570185730    -26.04494667114588
  C          17.61450861293657     24.64474709837711    -28.12348958474874
  C          17.88390398629387     25.88967595119935    -27.57459619937141
  C          11.75609893963748     21.27787413011121    -21.00738017851543
  H          11.42311374030903     20.28349053474293    -21.24816701481798
  S          12.08695790849023     23.52922621103489    -19.75296861306255
  H          12.97436458875671     20.71806742811699    -23.50181199429502
  H          13.90997160611759     25.19622571561488    -21.46797619589297
  C          17.98761041661384     23.94635004864910    -29.30803688167571
  H          18.63338761995360     24.35028178372849    -30.06521764450022
  C          17.43394240071264     22.71786888403049    -29.36696710651665
  H          17.54765936179065     21.98698676486045    -30.14386155570145
  S          16.42386803034872     22.31133640905245    -28.00684390350557
  C          48.96556574347328     55.43918350834728    -55.58563590746329
  C          49.80097535555324     56.07894250150827    -56.47110583719424
  C          50.23217885971158     57.36676584718314    -56.14736442237493
  C          49.80003454618878     57.96372908950671    -54.93230632289043
  C          48.96422540197629     57.32276625490571    -54.04723609838246
  C          48.53277364880356     56.03520014408018    -54.37092159293592
  S          50.46328038947447     59.56585082772146    -54.74235642128875
  C          51.30526350943735     59.42788175695610    -56.27756118227603
  C          51.08244997338761     58.22227464847054    -56.88448102176044
  H          51.51730874997263     57.96008670588245    -57.83293894420397
  C          47.45378481066041     53.97212710039527    -54.23792467234033
  C          52.10377980161995     60.49840142422407    -56.75423469132329
  C          52.36327575151887     61.72720979202431    -56.18924054054148
  S          52.94632578802815     60.38162686861961    -58.28157498831731
  C          53.21868488681771     62.57274711987834    -56.95018991331318
  C          53.63210208464562     61.98303301126475    -58.13551740089560
  C          47.68105098126002     55.17994726126476    -53.63516558343349
  H          47.24619416735118     55.44520515858134    -52.68743473093936
  S          48.30115740282354     53.83834414128914    -55.77229127936543
  H          48.64779580835372     57.79370595292526    -53.13033862594263
  H          50.11740775423110     55.60803865942100    -57.38812764594337
  C          53.43665728149691     63.82055791609525    -56.29780635263010
  H          54.05032656172819     64.60708321392723    -56.69568770642979
  C          52.78134471781637     63.89798991278740    -55.12149361266039
  H          52.77194541113415     64.71980858029725    -54.43213794999612
  S          51.85458286073778     62.48038657935781    -54.71263033086973
  C          41.64370296033366     50.35013325180736    -47.46534272033528
  C          42.46102424986726     51.26474714107195    -48.08710827883930
  C          43.02350377733261     50.90898328917353    -49.31437374477952
  C          42.73676625629101     49.63330135512889    -49.87108750713791
  C          41.91890612773511     48.71909718906207    -49.24822428635888
  C          41.35649906178045     49.07466522591704    -48.02108085845433
  S          43.54599849071082     49.41274966757740    -51.40047628438364
  C          44.25566303005935     51.01528692261772    -51.28583974277353
  C          43.88580341610928     51.66537105929128    -50.14044244638175
  H          44.22434776173335     52.65797885560071    -49.90056333865969
  C          40.11970452170480     48.96419697388533    -46.04721417865157
  C          45.10466857920631     51.49646291889198    -52.31454735401592
  C          45.50845368741973     50.88974106474964    -53.48302574382233
  S          45.82046210069884     53.08854948350381    -52.21954179364739
  C          46.37464785728265     51.66958860188303    -54.29980326913277
  C          46.64865944251506     52.91266471903752    -53.74895188823665
  C          40.49373024875377     48.31881057399193    -47.19496334116074
  H          40.15635829316615     47.32635939154436    -47.43758785922829
  S          40.83337803561937     50.56694227893083    -45.93713161807716
  H          41.71403059533010     47.75607850294607    -49.68779987093287
  H          42.66593422030808     52.22787073453848    -47.64753379042553
  C          46.74456669516167     50.97190769912704    -55.48577365782762
  C          46.18604237552265     49.74573615304929    -55.54676221482860
  H          46.29671129856784     49.01578120438356    -56.32496556751902
  S          45.17624855737377     49.34001731114616    -54.18616084582160
  H          47.39184194078963     51.37454585816500    -56.24235787041864
  C          34.57258964369206     41.93576420803923    -42.50106353953500
  C          35.41227186556429     42.57392175695232    -43.38362030929065
  C          35.84368033514353     43.86148150473353    -43.05901682006048
  C          35.40727487945289     44.45981594376725    -41.84615199446866
  C          34.56710804240992     43.82055881734201    -40.96412182685503
  C          34.13574899899874     42.53321029125964    -41.28847279700311
  S          36.07081398259469     46.06157521080425    -41.65488896224400
  C          36.92144887222308     45.92036895845465    -43.18497822177896
  C          36.69934943639802     44.71485142773229    -43.79234400375314
  H          37.13921439407946     44.45085950641203    -44.73798536098982
  C          33.05470200699398     40.47117375516982    -41.15739357125007
  C          37.72539113103288     46.98864654639571    -43.65735281932987
  C          37.98386597391152     48.21728223233133    -43.09158645859970
  S          38.57933752759752     46.86800200218509    -45.17802961878280
  C          38.84701531325908     49.05990845273219    -43.84690966778140
  C          39.26749526046380     48.46806756617617    -45.02868112079213
  C          33.28064135374930     41.67941697872075    -40.55508250246695
  H          32.84296432365718     41.94577053378015    -39.60896933904785
  S          33.90733741441488     40.33535741146800    -42.68868973635339
  H          34.24765047839730     44.29245800585664    -40.04877401762471
  H          35.73181668728146     42.10201500023270    -44.29904472438714
  C          39.06360396978834     50.30760550654808    -43.19388018430805
  H          39.68217042396144     51.09227467362703    -43.58779125210330
  C          38.40002812281202     50.38766256310368    -42.02238259709299
  H          38.38779219817786     51.21004590603896    -41.33374833993323
  S          37.46664392696329     48.97283215576452    -41.61915516892634
  C          70.13876387256983     77.47293447378132    -73.83542261706403
  C          70.93987226329591     78.39465983539094    -74.46872346540535
  C          71.48842684994058     78.04327977949139    -75.70283798937307
  C          71.20556924174990     76.76545857649828    -76.25511800104228
  C          70.40419056616830     75.84402841850712    -75.62100427551829
  C          69.85540275709286     76.19513759680450    -74.38675474570381
  S          71.99630014600082     76.55214078294547    -77.79524619868729
  C          72.69320870541739     78.16032178265282    -77.69000238740637
  C          72.33400539982115     78.80729792977084    -76.54197263191033
  H          72.66646791732985     79.80283300782642    -76.30575914459951
  C          68.64610715819842     76.07425602259956    -72.39647205509213
  C          73.52632469919904     78.64649657541507    -78.73444162337407
  C          73.91796320119244     78.04177979863539    -79.90454399675598
  S          74.23361926500560     80.24538789525430    -78.65455680957483
  C          74.77054691621734     78.84136870101608    -80.72748500098429
  C          75.02380705823879     80.06365907054280    -80.16948517609910
  C          69.01020951852963     75.43181257629828    -73.54858000371073
  H          68.67841759080729     74.43631650185266    -73.78645360021682
  S          69.34717468116156     77.68335458288126    -72.29651212497527
  H          70.20193741482494     74.87908889401018    -76.05762750980529
  H          71.14209394747785     79.35966628241511    -74.03200237649669
  C          75.14022561709983     78.15571923390085    -81.92570550517348
  H          75.77638829654538     78.57892607495670    -82.68123371036424
  C          74.59775526004994     76.92558682829022    -81.98995491018549
  H          74.70897122522035     76.20066012657644    -82.77316935357175
  S          73.60272217566950     76.49373616125172    -80.62092467259140
  H          75.62270917487251     80.86486363954556    -80.55237885589366
  C          63.20374545809803     69.00074302458498    -68.77772056196132
  C          64.02798562120269     69.64510391120989    -69.67032365093441
  C          64.45307993799752     70.93613612776211    -69.35124301011044
  C          64.02651036861347     71.53143796587743    -68.13341269225246
  C          63.20198734873331     70.88590497658825    -67.24122927544633
  C          62.77664537971649     69.59519066536403    -67.56023545823722
  S          64.67987648845890     73.13838986247086    -67.95046460189016
  C          65.51202178960435     73.00390222917594    -69.49123847719304
  C          65.29247885793177     71.79634271466799    -70.09541087230801
  H          65.72236821438563     71.53583991314187    -71.04657918287319
  C          61.71213188860575     67.52534742760038    -67.41633125624558
  C          66.30050001657951     74.07900461063917    -69.97426058429510
  C          66.55585221556380     75.30996261107249    -69.41238143984867
  S          67.13523621480712     73.96537949109118    -71.50626702020884
  C          67.40172301326656     76.15974923290895    -70.17936813034039
  C          67.81182212364793     75.57106318935803    -71.36613182156326
  C          61.93637985000507     68.73528010849093    -66.81679610236067
  H          61.50735004843559     68.99883947139173    -65.86594495808708
  S          62.54833365449029     67.39528760877698    -68.95720413355295
  H          62.88967242857039     71.35562048227953    -66.32230168202531
  H          64.34033339779211     69.17540562653642    -70.58935944205888
  C          67.61538799245459     77.40995940062962    -69.52993930033111
  C          66.96659774706843     77.48488050359475    -68.34997176599944
  H          66.95579526168589     78.30759374335150    -67.66171443766490
  S          66.05228438904886     76.06135444637773    -67.93309017777736
  H          68.22151066331638     78.19990782283109    -69.93254264912034
  C          55.98096829831537     63.87526743782435    -60.59097811722760
  C          56.78874048686875     64.79365140165876    -61.21978522752611
  C          57.34219437586452     64.44049137516949    -62.45197103860079
  C          57.05670261765018     63.16339312660114    -63.00608117040531
  C          56.24847030743786     62.24545996894545    -62.37618166467364
  C          55.69470888210785     62.59858088916026    -61.14440513046621
  S          57.85345761783979     62.94660103498627    -64.54254781935016
  C          58.55642230076134     64.55252373217880    -64.43436677794412
  C          58.19349429881228     65.20098955463158    -63.28576380891364
  H          58.52936553767421     66.19524090417819    -63.04895457108372
  C          54.47456721899087     62.48265872325145    -59.16049217061904
  C          59.39340929330056     65.03787781093966    -65.47102453298996
  C          59.79084377227343     64.43245077028085    -66.64234008559575
  S          60.10150519212843     66.63390400019979    -65.38318228728446
  C          60.64574210616097     65.21646317737182    -67.46703548041187
  C          60.91770275523250     66.46140579999110    -66.91945956359925
  C          54.84220938217753     61.83886787018638    -60.31118568496161
  H          54.50693290784695     60.84508325755240    -60.55127668872028
  S          55.18160360750640     64.08878515004429    -59.05650942407176
  H          56.04416987337660     61.28152760027572    -62.81402804537647
  H          56.99301291111952     65.75772193986653    -60.78198784697224
  C          61.00819118840373     64.52052047030232    -68.65633758430685
  H          61.64642547027123     64.92640569420794    -69.41883821564439
  C          60.45589849574378     63.29127995414862    -68.71177941871331
  H          60.56337465811233     62.56161809211588    -69.49070596764722
  S          59.46372992911377     62.87923390840833    -67.34013225544572
