158
Coordinates from ORCA-job PTB1-r2SCAN-3c-DEF2-TZVPD-HEXAMERO E -13237.051199079246
  C           5.83485215066220     14.86462084503691    -16.04380838651732
  C           6.66530470236764     15.49289935882483    -16.95023064066691
  C           7.14259731194205     16.77173312168455    -16.62866780101783
  C           6.75783722546413     17.37288402925484    -15.39130221240921
  C           5.92601432567554     16.74469623500420    -14.48537311298639
  C           5.45006777283476     15.46628621311527    -14.80711255050221
  S           7.47206714228804     18.94872769307924    -15.21742470241682
  C           8.27586859933754     18.81299196656084    -16.77139000425876
  C           7.99911896020048     17.61175800621499    -17.38235059469470
  H           8.40277783865402     17.33666019617552    -18.35074847175517
  C           4.31667044093851     13.42110624351936    -14.65757201830234
  C           9.09624691403597     19.87766583217245    -17.25016593963813
  C           9.41383291244260     21.09756750907380    -16.67400427632472
  S           9.89644612975076     19.76464408882239    -18.78851623086256
  C          10.27853813053509     21.92556039721402    -17.45153793862911
  C          10.63871959551176     21.32989526343674    -18.66270581240317
  C           4.59471741303095     14.62591687629026    -14.05270990230828
  H           4.19106077669277     14.90573281860296    -13.08561762993649
  S           5.12229802009750     13.28758675455652    -16.21231049399346
  H           5.64334899696306     17.21657164661733    -13.54950123414817
  H           6.94814240620286     15.02114265548486    -17.88617455826763
  C          10.55363889953841     23.16747340796254    -16.79461445807195
  H          11.17615324861399     23.96057588577160    -17.18588088065307
  C           9.92997697557431     23.25533172887734    -15.59270881283628
  H           9.97119831348875     24.08470290770184    -14.89862736107827
  S           8.97670998200478     21.85970223400545    -15.17781952336587
  C          -1.22825106085746      9.81902576693188     -7.61053230356433
  C          -0.41898127123045     10.72411163874112     -8.26771301155678
  C           0.06066192564587     10.37587864110511     -9.53845626850950
  C          -0.30086869179286      9.11478566879158    -10.10331076889751
  C          -1.11163046819458      8.21008025826133     -9.44597058021963
  C          -1.58920015854812      8.55797985566239     -8.17498780120391
  S           0.41131662533048      8.91219572182934    -11.67700514285454
  C           1.18209182016296     10.48620355222176    -11.58808583810888
  C           0.89771229192753     11.12381593299122    -10.40277757614127
  H           1.28054724382093     12.10831402313926    -10.15658153215681
  C          -2.71383638850606      8.44515714016470     -6.12267892074114
  C           1.98777482808990     10.95477296499823    -12.66852626533623
  C           2.30147639948094     10.36243505879972    -13.88147206758890
  S           2.76816943918695     12.50521409646884    -12.58917334838306
  C           3.14840987645921     11.13704386441964    -14.73067329824525
  C           3.49915343359385     12.36221712212194    -14.15839162464468
  C          -2.42738768688392      7.81115027869490     -7.31004319318344
  H          -2.81610783073370      6.83037772078017     -7.56207850670813
  S          -1.93871668249101     10.01853063172370     -6.03651004491029
  H          -1.37685262004265      7.25571337750409     -9.89013796609074
  H          -0.15418851379986     11.67887816462047     -7.82402150920406
  C           3.42348828743741     10.46092002882657    -15.96220353723312
  C           2.81425718928698      9.24993834824400    -16.02396494926892
  H           2.85899434962771      8.54129620096943    -16.84074188266429
  S           1.87684837388905      8.84798253067283    -14.61384369523154
  H           4.03740507793530     10.84422481309950    -16.76584762724372
  C          -7.88498026439994      1.31078531516206     -2.13177298576808
  C          -7.10738563248343      1.96012302589031     -3.07536300552045
  C          -6.70404718663017      3.27223442518378     -2.80385851071081
  C          -7.10236747929717      3.89025067804040     -1.58001852674563
  C          -7.87914560268379      3.24229720829266     -0.63801989618586
  C          -8.28163946308818      1.93073063311678     -0.90970670888815
  S          -6.48048402647446      5.51065015496556     -1.46942527441064
  C          -5.69931998355489      5.37252921978106     -3.03488999738319
  C          -5.91249409269423      4.13995161350255     -3.60220210096477
  H          -5.51252035630108      3.85902662637334     -4.57043941869217
  C          -9.27400633547081     -0.15742973705729     -0.68542540560789
  H          -9.83626910279360     -0.99082894552819     -0.28583091498329
  C          -4.95217992871698      6.47036036846548     -3.56273295029394
  C          -4.71779536469996      7.73187059326605     -3.04129057492171
  S          -4.14760237876401      6.34454827075092     -5.09682257994190
  C          -3.91240659143950      8.58283252307522     -3.85809039500413
  C          -3.51383010584586      7.96061867931645     -5.04299848043594
  C          -9.07777101146206      1.05485937150665     -0.10752847038450
  H          -9.48303865147265      1.32713713691376      0.86012003663409
  S          -8.50821085152558     -0.31068314724836     -2.23233339024249
  H          -8.17304578525118      3.72777146340731      0.28759297611387
  H          -6.81292229254190      1.47511486875032     -4.00096409830282
  C          -3.72224062182336      9.86809632699229     -3.25660557705234
  H          -3.15564375207871     10.68400310057752     -3.68426407046650
  C          -4.34965908161759      9.96551384357388     -2.05744827103510
  H          -4.36440847157904     10.82537871000538     -1.40034463557320
  S          -5.20514038204472      8.52751726824713     -1.57794067290545
  C          27.56441136532553     36.48285758498123    -34.39958928012959
  C          28.34328307506256     37.42010898694965    -35.04970575027857
  C          28.73871400157496     37.14739834022861    -36.36622175586746
  C          28.33096486084939     35.92530944105934    -36.98154239727251
  C          27.55329464240398     34.98699339139773    -36.33066017735784
  C          27.15591432512841     35.26147180835018    -35.01534312217236
  S          28.94278222035875     35.81481053056114    -38.60569781264591
  C          29.73395814871732     37.37390221277894    -38.46978524284219
  C          29.53034665650309     37.94095297349384    -37.23619757389218
  H          29.94205345511716     38.90407018965409    -36.95452578341370
  C          26.16051526402885     35.03013893065128    -32.90699924572490
  C          30.47536865040790     37.89673768041845    -39.57842031409628
  C          30.74734216271700     37.34182469660929    -40.81804798094143
  S          31.21168839213385     39.46881611812123    -39.50364122468293
  C          31.53441718779440     38.17306770559817    -41.67891835669565
  C          31.86026316095622     39.37165817633451    -41.08241437579154
  C          26.36768692782260     34.46700776094838    -34.14492273182643
  H          25.96971655470223     33.49740552716302    -34.42430299636209
  S          26.94975634299390     36.59355522237015    -32.77690471402047
  H          27.25240314608054     34.06272783650282    -36.81409611913837
  H          28.64535635304463     38.34387255614158    -34.56593596926146
  C          31.78787252171529     37.55069898590073    -42.94480375732147
  H          32.36102526477355     37.99880274556295    -43.74701727174171
  C          31.22206117700982     36.32306054730787    -43.02522181402215
  H          31.25770232732691     35.64056697026544    -43.86461718782056
  S          30.35241902072290     35.83730054614892    -41.58998146385264
  H          32.43953589129829     40.19041521927273    -41.48586604839929
  C          20.31551360190413     28.16770377083517    -29.41513558641623
  C          21.12102846860076     28.82196672289093    -30.32580543031023
  C          21.73733920508965     30.01473961393455    -29.92134421988334
  C          21.51589428719687     30.50451404993312    -28.59788926338111
  C          20.71151908844365     29.84883500591745    -27.68654053068598
  C          20.09383723443624     28.65793598931065    -28.09236940700434
  S          22.38060358794689     31.99001656249181    -28.33254226199798
  C          23.03199231699157     31.96237174085826    -29.96171624807458
  C          22.59798466130089     30.86137111619171    -30.66295376178450
  H          22.89280423650717     30.66182048324412    -31.68746772958856
  C          18.79708764888690     26.70712814600432    -28.04759146905453
  C          23.89557660350609     33.00722083091941    -30.40768697388146
  C          24.39824455864915     34.10886024560743    -29.73405117574906
  S          24.48826285311151     33.03685715558215    -32.04106525116588
  C          25.24771177610774     34.95483559161503    -30.50963462453365
  C          25.40609014857848     34.49432124766213    -31.81850020322484
  C          19.23456921599381     27.81024574410036    -27.35041229839925
  H          18.95219415358503     28.00594470491342    -26.32157675773395
  S          19.44733938034677     26.68428907829674    -29.67867016425468
  H          20.55422808970184     30.23531818925149    -26.68435907914727
  H          21.27917330654405     28.43516690297851    -31.32777787869914
  C          25.73619372793587     36.06078929387713    -29.74263567317247
  C          25.27189058099350     36.03929337877148    -28.46800486497844
  H          25.48785744291573     36.75542826494188    -27.68579370661774
  S          24.22579054468517     34.69483438517877    -28.11001343744446
  H          26.40055225478588     36.83259546550571    -30.10685134935515
  C          13.05062705974224     23.14313764238805    -21.14469687466492
  C          13.91994973596241     24.02082961859223    -21.76082162867474
  C          14.37425993494873     23.70158053151351    -23.04833719450184
  C          13.92718197602713     22.49616029884842    -23.67082961200291
  C          13.05699010262465     21.61853280020799    -23.05424180394860
  C          12.60432126632317     21.93754544729418    -21.76652579373016
  S          14.62199994435883     22.32118858398124    -25.25563681598405
  C          15.49958528260161     23.83232325349907    -25.09450609999874
  C          15.26049689450332     24.43047508752585    -23.87900442983246
  H          15.71239364523807     25.37215114885543    -23.58668654840551
  C          11.47229388689638     21.80706717312379    -19.71930503182918
  C          16.33258416355978     24.29704027770477    -26.15558539056949
  C          16.62257320971131     23.73167563636861    -27.38721910997263
  S          17.18303160158614     25.80659640574044    -26.02313330272773
  C          17.51255980806483     24.49097587729903    -28.20553939457849
  C          17.92235131097135     25.67567661961275    -27.58927587469254
  C          11.71612863669861     21.21057995972982    -20.93557330684675
  H          11.26063365927154     20.27193625576630    -21.23229342032306
  S          12.35483541070609     23.31700484584951    -19.56108504254836
  H          12.72748071939688     20.70653968164365    -23.54225129658134
  H          14.24886424093938     24.93338678179168    -21.27336738278227
  C          17.76932928344011     23.83934996810660    -29.45413512273513
  H          18.41468439106567     24.21402175730750    -30.23700197113730
  C          17.10370609208713     22.66149736116580    -29.55858664860055
  H          17.12415909481306     21.97581862399510    -30.39568362417109
  S          16.13451507030212     22.26189608269780    -28.16929881650447
